* 
* Copyright 2002 by Artisan Components, Inc.
* This file has been provided pursuant to a License Agreement
* containing restrictions on its use.  This file contains valuable
* trade secrets and proprietary information of Artisan Components,
* Inc. and is protected by law.
* 
* Generated by bif2cdl v3.3c
* Version: 2005Q3V1
* Name: High Speed/Density Single-Port SRAM|SMIC 0.18um Logic018 Process
* Comment: 
* Configuration:  -instname RA1SHD8192X64 -words 8192 -bits 64 -fre\
* Configuration: quency 20 -ring_width 2 -mux 16 -drive 12 -write_m\
* Configuration: ask on -wp_size 8 -top_layer met6 -power_type ring\
* Configuration: s -horiz met3 -vert met4 -cust_comment "" -left_bu\
* Configuration: s_delim "[" -right_bus_delim "]" -pwr_gnd_rename "\
* Configuration: VDD:VDD,GND:VSS" -prefix "" -pin_space 0.0 -name_c\
* Configuration: ase upper -check_instname on -diodes on -inside_ri\
* Configuration: ng_type GND -asvm on
* Codefile: 
* 
*
** begin lvs.header
** $Revision: 1.2 $
*.SCALE meter
** end lvs.header
*.BIPOLAR
*.DIOAREA
*.DIOPERI
*
****
.SUBCKT RA1SHD8192X64FCIO8 GTP OE_ WE VSS VDD
** RA1SHD8192X64FCIO8: 3 flat devices **
d1 VSS GTP DN 0.3364P 2.32U
d2 VSS OE_ DN 0.3364P 2.32U
d3 VSS WE DN 0.3364P 2.32U
.ENDS RA1SHD8192X64FCIO8
****
.SUBCKT RA1SHD8192X64FCSA8 GTP VSS VDD
** RA1SHD8192X64FCSA8: 1 flat devices **
d1 VSS GTP DN 0.3364P 2.32U
.ENDS RA1SHD8192X64FCSA8
****
.SUBCKT RA1SHD8192X64FCCDL A0 A0_ DR DR_ DW DW_ GTP VD YP0_0 YP0_1 YP0_2 YP0_3
+  YP1_0 YP1_1 YP1_2 YP1_3 VSS VDD
** RA1SHD8192X64FCCDL: 2 flat devices **
d2 VSS VSS DN 0.3364P 2.32U
m1 VDD VSS VD VDD P L=0.18U W=0.22U
.ENDS RA1SHD8192X64FCCDL
****
.SUBCKT RA1SHD8192X64CCG BL BL_ WL WP VSS VDD
** RA1SHD8192X64CCG: 6 flat devices **
m1 BL WP CORED VSS N L=0.29U W=0.22U
m2 BL_ WP CORED_ VSS N L=0.29U W=0.22U
m3 CORED_ CORED VDD VDD P L=0.19U W=0.22U
m4 CORED_ CORED VSS VSS N L=0.18U W=0.25U
m5 CORED CORED_ VDD VDD P L=0.19U W=0.22U
m6 CORED CORED_ VSS VSS N L=0.18U W=0.25U
.ENDS RA1SHD8192X64CCG
****
.SUBCKT RA1SHD8192X64LEFT_CAP A0 A0_ DR DR_ DW DW_ GTP GTP_0 GTP_1 OE_ WE WL
+  WL_0 WL_1 WL_2 WL_3 WL_4 WL_5 WL_6 WL_7 WL_8 WL_9 WL_10 WL_11 WL_12 WL_13
+  WL_14 WL_15 WL_16 WL_17 WL_18 WL_19 WL_20 WL_21 WL_22 WL_23 WL_24 WL_25
+  WL_26 WL_27 WL_28 WL_29 WL_30 WL_31 WL_32 WL_33 WL_34 WL_35 WL_36 WL_37
+  WL_38 WL_39 WL_40 WL_41 WL_42 WL_43 WL_44 WL_45 WL_46 WL_47 WL_48 WL_49
+  WL_50 WL_51 WL_52 WL_53 WL_54 WL_55 WL_56 WL_57 WL_58 WL_59 WL_60 WL_61
+  WL_62 WL_63 WL_64 WL_65 WL_66 WL_67 WL_68 WL_69 WL_70 WL_71 WL_72 WL_73
+  WL_74 WL_75 WL_76 WL_77 WL_78 WL_79 WL_80 WL_81 WL_82 WL_83 WL_84 WL_85
+  WL_86 WL_87 WL_88 WL_89 WL_90 WL_91 WL_92 WL_93 WL_94 WL_95 WL_96 WL_97
+  WL_98 WL_99 WL_100 WL_101 WL_102 WL_103 WL_104 WL_105 WL_106 WL_107 WL_108
+  WL_109 WL_110 WL_111 WL_112 WL_113 WL_114 WL_115 WL_116 WL_117 WL_118
+  WL_119 WL_120 WL_121 WL_122 WL_123 WL_124 WL_125 WL_126 WL_127 WL_128
+  WL_129 WL_130 WL_131 WL_132 WL_133 WL_134 WL_135 WL_136 WL_137 WL_138
+  WL_139 WL_140 WL_141 WL_142 WL_143 WL_144 WL_145 WL_146 WL_147 WL_148
+  WL_149 WL_150 WL_151 WL_152 WL_153 WL_154 WL_155 WL_156 WL_157 WL_158
+  WL_159 WL_160 WL_161 WL_162 WL_163 WL_164 WL_165 WL_166 WL_167 WL_168
+  WL_169 WL_170 WL_171 WL_172 WL_173 WL_174 WL_175 WL_176 WL_177 WL_178
+  WL_179 WL_180 WL_181 WL_182 WL_183 WL_184 WL_185 WL_186 WL_187 WL_188
+  WL_189 WL_190 WL_191 WL_192 WL_193 WL_194 WL_195 WL_196 WL_197 WL_198
+  WL_199 WL_200 WL_201 WL_202 WL_203 WL_204 WL_205 WL_206 WL_207 WL_208
+  WL_209 WL_210 WL_211 WL_212 WL_213 WL_214 WL_215 WL_216 WL_217 WL_218
+  WL_219 WL_220 WL_221 WL_222 WL_223 WL_224 WL_225 WL_226 WL_227 WL_228
+  WL_229 WL_230 WL_231 WL_232 WL_233 WL_234 WL_235 WL_236 WL_237 WL_238
+  WL_239 WL_240 WL_241 WL_242 WL_243 WL_244 WL_245 WL_246 WL_247 WL_248
+  WL_249 WL_250 WL_251 WL_252 WL_253 WL_254 WL_255 WL_256 WL_257 WL_258
+  WL_259 WL_260 WL_261 WL_262 WL_263 WL_264 WL_265 WL_266 WL_267 WL_268
+  WL_269 WL_270 WL_271 WL_272 WL_273 WL_274 WL_275 WL_276 WL_277 WL_278
+  WL_279 WL_280 WL_281 WL_282 WL_283 WL_284 WL_285 WL_286 WL_287 WL_288
+  WL_289 WL_290 WL_291 WL_292 WL_293 WL_294 WL_295 WL_296 WL_297 WL_298
+  WL_299 WL_300 WL_301 WL_302 WL_303 WL_304 WL_305 WL_306 WL_307 WL_308
+  WL_309 WL_310 WL_311 WL_312 WL_313 WL_314 WL_315 WL_316 WL_317 WL_318
+  WL_319 WL_320 WL_321 WL_322 WL_323 WL_324 WL_325 WL_326 WL_327 WL_328
+  WL_329 WL_330 WL_331 WL_332 WL_333 WL_334 WL_335 WL_336 WL_337 WL_338
+  WL_339 WL_340 WL_341 WL_342 WL_343 WL_344 WL_345 WL_346 WL_347 WL_348
+  WL_349 WL_350 WL_351 WL_352 WL_353 WL_354 WL_355 WL_356 WL_357 WL_358
+  WL_359 WL_360 WL_361 WL_362 WL_363 WL_364 WL_365 WL_366 WL_367 WL_368
+  WL_369 WL_370 WL_371 WL_372 WL_373 WL_374 WL_375 WL_376 WL_377 WL_378
+  WL_379 WL_380 WL_381 WL_382 WL_383 WL_384 WL_385 WL_386 WL_387 WL_388
+  WL_389 WL_390 WL_391 WL_392 WL_393 WL_394 WL_395 WL_396 WL_397 WL_398
+  WL_399 WL_400 WL_401 WL_402 WL_403 WL_404 WL_405 WL_406 WL_407 WL_408
+  WL_409 WL_410 WL_411 WL_412 WL_413 WL_414 WL_415 WL_416 WL_417 WL_418
+  WL_419 WL_420 WL_421 WL_422 WL_423 WL_424 WL_425 WL_426 WL_427 WL_428
+  WL_429 WL_430 WL_431 WL_432 WL_433 WL_434 WL_435 WL_436 WL_437 WL_438
+  WL_439 WL_440 WL_441 WL_442 WL_443 WL_444 WL_445 WL_446 WL_447 WL_448
+  WL_449 WL_450 WL_451 WL_452 WL_453 WL_454 WL_455 WL_456 WL_457 WL_458
+  WL_459 WL_460 WL_461 WL_462 WL_463 WL_464 WL_465 WL_466 WL_467 WL_468
+  WL_469 WL_470 WL_471 WL_472 WL_473 WL_474 WL_475 WL_476 WL_477 WL_478
+  WL_479 WL_480 WL_481 WL_482 WL_483 WL_484 WL_485 WL_486 WL_487 WL_488
+  WL_489 WL_490 WL_491 WL_492 WL_493 WL_494 WL_495 WL_496 WL_497 WL_498
+  WL_499 WL_500 WL_501 WL_502 WL_503 WL_504 WL_505 WL_506 WL_507 WL_508
+  WL_509 WL_510 YP0_0 YP0_1 YP0_2 YP0_3 YP1_0 YP1_1 YP1_2 YP1_3 VSS VDD
** RA1SHD8192X64LEFT_CAP: 3096 flat devices **
XI0_0 GTP OE_ WE VSS VDD RA1SHD8192X64FCIO8
XI0_1 GTP_0 VSS VDD RA1SHD8192X64FCSA8
XI0_10 VD VD WL_6 WL_6 VSS VDD RA1SHD8192X64CCG
XI0_100 VD VD WL_96 WL_96 VSS VDD RA1SHD8192X64CCG
XI0_101 VD VD WL_97 WL_97 VSS VDD RA1SHD8192X64CCG
XI0_102 VD VD WL_98 WL_98 VSS VDD RA1SHD8192X64CCG
XI0_103 VD VD WL_99 WL_99 VSS VDD RA1SHD8192X64CCG
XI0_104 VD VD WL_100 WL_100 VSS VDD RA1SHD8192X64CCG
XI0_105 VD VD WL_101 WL_101 VSS VDD RA1SHD8192X64CCG
XI0_106 VD VD WL_102 WL_102 VSS VDD RA1SHD8192X64CCG
XI0_107 VD VD WL_103 WL_103 VSS VDD RA1SHD8192X64CCG
XI0_108 VD VD WL_104 WL_104 VSS VDD RA1SHD8192X64CCG
XI0_109 VD VD WL_105 WL_105 VSS VDD RA1SHD8192X64CCG
XI0_11 VD VD WL_7 WL_7 VSS VDD RA1SHD8192X64CCG
XI0_110 VD VD WL_106 WL_106 VSS VDD RA1SHD8192X64CCG
XI0_111 VD VD WL_107 WL_107 VSS VDD RA1SHD8192X64CCG
XI0_112 VD VD WL_108 WL_108 VSS VDD RA1SHD8192X64CCG
XI0_113 VD VD WL_109 WL_109 VSS VDD RA1SHD8192X64CCG
XI0_114 VD VD WL_110 WL_110 VSS VDD RA1SHD8192X64CCG
XI0_115 VD VD WL_111 WL_111 VSS VDD RA1SHD8192X64CCG
XI0_116 VD VD WL_112 WL_112 VSS VDD RA1SHD8192X64CCG
XI0_117 VD VD WL_113 WL_113 VSS VDD RA1SHD8192X64CCG
XI0_118 VD VD WL_114 WL_114 VSS VDD RA1SHD8192X64CCG
XI0_119 VD VD WL_115 WL_115 VSS VDD RA1SHD8192X64CCG
XI0_12 VD VD WL_8 WL_8 VSS VDD RA1SHD8192X64CCG
XI0_120 VD VD WL_116 WL_116 VSS VDD RA1SHD8192X64CCG
XI0_121 VD VD WL_117 WL_117 VSS VDD RA1SHD8192X64CCG
XI0_122 VD VD WL_118 WL_118 VSS VDD RA1SHD8192X64CCG
XI0_123 VD VD WL_119 WL_119 VSS VDD RA1SHD8192X64CCG
XI0_124 VD VD WL_120 WL_120 VSS VDD RA1SHD8192X64CCG
XI0_125 VD VD WL_121 WL_121 VSS VDD RA1SHD8192X64CCG
XI0_126 VD VD WL_122 WL_122 VSS VDD RA1SHD8192X64CCG
XI0_127 VD VD WL_123 WL_123 VSS VDD RA1SHD8192X64CCG
XI0_128 VD VD WL_124 WL_124 VSS VDD RA1SHD8192X64CCG
XI0_129 VD VD WL_125 WL_125 VSS VDD RA1SHD8192X64CCG
XI0_13 VD VD WL_9 WL_9 VSS VDD RA1SHD8192X64CCG
XI0_130 VD VD WL_126 WL_126 VSS VDD RA1SHD8192X64CCG
XI0_131 VD VD WL_127 WL_127 VSS VDD RA1SHD8192X64CCG
XI0_132 VD VD WL_128 WL_128 VSS VDD RA1SHD8192X64CCG
XI0_133 VD VD WL_129 WL_129 VSS VDD RA1SHD8192X64CCG
XI0_134 VD VD WL_130 WL_130 VSS VDD RA1SHD8192X64CCG
XI0_135 VD VD WL_131 WL_131 VSS VDD RA1SHD8192X64CCG
XI0_136 VD VD WL_132 WL_132 VSS VDD RA1SHD8192X64CCG
XI0_137 VD VD WL_133 WL_133 VSS VDD RA1SHD8192X64CCG
XI0_138 VD VD WL_134 WL_134 VSS VDD RA1SHD8192X64CCG
XI0_139 VD VD WL_135 WL_135 VSS VDD RA1SHD8192X64CCG
XI0_14 VD VD WL_10 WL_10 VSS VDD RA1SHD8192X64CCG
XI0_140 VD VD WL_136 WL_136 VSS VDD RA1SHD8192X64CCG
XI0_141 VD VD WL_137 WL_137 VSS VDD RA1SHD8192X64CCG
XI0_142 VD VD WL_138 WL_138 VSS VDD RA1SHD8192X64CCG
XI0_143 VD VD WL_139 WL_139 VSS VDD RA1SHD8192X64CCG
XI0_144 VD VD WL_140 WL_140 VSS VDD RA1SHD8192X64CCG
XI0_145 VD VD WL_141 WL_141 VSS VDD RA1SHD8192X64CCG
XI0_146 VD VD WL_142 WL_142 VSS VDD RA1SHD8192X64CCG
XI0_147 VD VD WL_143 WL_143 VSS VDD RA1SHD8192X64CCG
XI0_148 VD VD WL_144 WL_144 VSS VDD RA1SHD8192X64CCG
XI0_149 VD VD WL_145 WL_145 VSS VDD RA1SHD8192X64CCG
XI0_15 VD VD WL_11 WL_11 VSS VDD RA1SHD8192X64CCG
XI0_150 VD VD WL_146 WL_146 VSS VDD RA1SHD8192X64CCG
XI0_151 VD VD WL_147 WL_147 VSS VDD RA1SHD8192X64CCG
XI0_152 VD VD WL_148 WL_148 VSS VDD RA1SHD8192X64CCG
XI0_153 VD VD WL_149 WL_149 VSS VDD RA1SHD8192X64CCG
XI0_154 VD VD WL_150 WL_150 VSS VDD RA1SHD8192X64CCG
XI0_155 VD VD WL_151 WL_151 VSS VDD RA1SHD8192X64CCG
XI0_156 VD VD WL_152 WL_152 VSS VDD RA1SHD8192X64CCG
XI0_157 VD VD WL_153 WL_153 VSS VDD RA1SHD8192X64CCG
XI0_158 VD VD WL_154 WL_154 VSS VDD RA1SHD8192X64CCG
XI0_159 VD VD WL_155 WL_155 VSS VDD RA1SHD8192X64CCG
XI0_16 VD VD WL_12 WL_12 VSS VDD RA1SHD8192X64CCG
XI0_160 VD VD WL_156 WL_156 VSS VDD RA1SHD8192X64CCG
XI0_161 VD VD WL_157 WL_157 VSS VDD RA1SHD8192X64CCG
XI0_162 VD VD WL_158 WL_158 VSS VDD RA1SHD8192X64CCG
XI0_163 VD VD WL_159 WL_159 VSS VDD RA1SHD8192X64CCG
XI0_164 VD VD WL_160 WL_160 VSS VDD RA1SHD8192X64CCG
XI0_165 VD VD WL_161 WL_161 VSS VDD RA1SHD8192X64CCG
XI0_166 VD VD WL_162 WL_162 VSS VDD RA1SHD8192X64CCG
XI0_167 VD VD WL_163 WL_163 VSS VDD RA1SHD8192X64CCG
XI0_168 VD VD WL_164 WL_164 VSS VDD RA1SHD8192X64CCG
XI0_169 VD VD WL_165 WL_165 VSS VDD RA1SHD8192X64CCG
XI0_17 VD VD WL_13 WL_13 VSS VDD RA1SHD8192X64CCG
XI0_170 VD VD WL_166 WL_166 VSS VDD RA1SHD8192X64CCG
XI0_171 VD VD WL_167 WL_167 VSS VDD RA1SHD8192X64CCG
XI0_172 VD VD WL_168 WL_168 VSS VDD RA1SHD8192X64CCG
XI0_173 VD VD WL_169 WL_169 VSS VDD RA1SHD8192X64CCG
XI0_174 VD VD WL_170 WL_170 VSS VDD RA1SHD8192X64CCG
XI0_175 VD VD WL_171 WL_171 VSS VDD RA1SHD8192X64CCG
XI0_176 VD VD WL_172 WL_172 VSS VDD RA1SHD8192X64CCG
XI0_177 VD VD WL_173 WL_173 VSS VDD RA1SHD8192X64CCG
XI0_178 VD VD WL_174 WL_174 VSS VDD RA1SHD8192X64CCG
XI0_179 VD VD WL_175 WL_175 VSS VDD RA1SHD8192X64CCG
XI0_18 VD VD WL_14 WL_14 VSS VDD RA1SHD8192X64CCG
XI0_180 VD VD WL_176 WL_176 VSS VDD RA1SHD8192X64CCG
XI0_181 VD VD WL_177 WL_177 VSS VDD RA1SHD8192X64CCG
XI0_182 VD VD WL_178 WL_178 VSS VDD RA1SHD8192X64CCG
XI0_183 VD VD WL_179 WL_179 VSS VDD RA1SHD8192X64CCG
XI0_184 VD VD WL_180 WL_180 VSS VDD RA1SHD8192X64CCG
XI0_185 VD VD WL_181 WL_181 VSS VDD RA1SHD8192X64CCG
XI0_186 VD VD WL_182 WL_182 VSS VDD RA1SHD8192X64CCG
XI0_187 VD VD WL_183 WL_183 VSS VDD RA1SHD8192X64CCG
XI0_188 VD VD WL_184 WL_184 VSS VDD RA1SHD8192X64CCG
XI0_189 VD VD WL_185 WL_185 VSS VDD RA1SHD8192X64CCG
XI0_19 VD VD WL_15 WL_15 VSS VDD RA1SHD8192X64CCG
XI0_190 VD VD WL_186 WL_186 VSS VDD RA1SHD8192X64CCG
XI0_191 VD VD WL_187 WL_187 VSS VDD RA1SHD8192X64CCG
XI0_192 VD VD WL_188 WL_188 VSS VDD RA1SHD8192X64CCG
XI0_193 VD VD WL_189 WL_189 VSS VDD RA1SHD8192X64CCG
XI0_194 VD VD WL_190 WL_190 VSS VDD RA1SHD8192X64CCG
XI0_195 VD VD WL_191 WL_191 VSS VDD RA1SHD8192X64CCG
XI0_196 VD VD WL_192 WL_192 VSS VDD RA1SHD8192X64CCG
XI0_197 VD VD WL_193 WL_193 VSS VDD RA1SHD8192X64CCG
XI0_198 VD VD WL_194 WL_194 VSS VDD RA1SHD8192X64CCG
XI0_199 VD VD WL_195 WL_195 VSS VDD RA1SHD8192X64CCG
XI0_2 A0 A0_ DR DR_ DW DW_ GTP_1 VD YP0_0 YP0_1 YP0_2 YP0_3 YP1_0 YP1_1 YP1_2
+  YP1_3 VSS VDD RA1SHD8192X64FCCDL
XI0_20 VD VD WL_16 WL_16 VSS VDD RA1SHD8192X64CCG
XI0_200 VD VD WL_196 WL_196 VSS VDD RA1SHD8192X64CCG
XI0_201 VD VD WL_197 WL_197 VSS VDD RA1SHD8192X64CCG
XI0_202 VD VD WL_198 WL_198 VSS VDD RA1SHD8192X64CCG
XI0_203 VD VD WL_199 WL_199 VSS VDD RA1SHD8192X64CCG
XI0_204 VD VD WL_200 WL_200 VSS VDD RA1SHD8192X64CCG
XI0_205 VD VD WL_201 WL_201 VSS VDD RA1SHD8192X64CCG
XI0_206 VD VD WL_202 WL_202 VSS VDD RA1SHD8192X64CCG
XI0_207 VD VD WL_203 WL_203 VSS VDD RA1SHD8192X64CCG
XI0_208 VD VD WL_204 WL_204 VSS VDD RA1SHD8192X64CCG
XI0_209 VD VD WL_205 WL_205 VSS VDD RA1SHD8192X64CCG
XI0_21 VD VD WL_17 WL_17 VSS VDD RA1SHD8192X64CCG
XI0_210 VD VD WL_206 WL_206 VSS VDD RA1SHD8192X64CCG
XI0_211 VD VD WL_207 WL_207 VSS VDD RA1SHD8192X64CCG
XI0_212 VD VD WL_208 WL_208 VSS VDD RA1SHD8192X64CCG
XI0_213 VD VD WL_209 WL_209 VSS VDD RA1SHD8192X64CCG
XI0_214 VD VD WL_210 WL_210 VSS VDD RA1SHD8192X64CCG
XI0_215 VD VD WL_211 WL_211 VSS VDD RA1SHD8192X64CCG
XI0_216 VD VD WL_212 WL_212 VSS VDD RA1SHD8192X64CCG
XI0_217 VD VD WL_213 WL_213 VSS VDD RA1SHD8192X64CCG
XI0_218 VD VD WL_214 WL_214 VSS VDD RA1SHD8192X64CCG
XI0_219 VD VD WL_215 WL_215 VSS VDD RA1SHD8192X64CCG
XI0_22 VD VD WL_18 WL_18 VSS VDD RA1SHD8192X64CCG
XI0_220 VD VD WL_216 WL_216 VSS VDD RA1SHD8192X64CCG
XI0_221 VD VD WL_217 WL_217 VSS VDD RA1SHD8192X64CCG
XI0_222 VD VD WL_218 WL_218 VSS VDD RA1SHD8192X64CCG
XI0_223 VD VD WL_219 WL_219 VSS VDD RA1SHD8192X64CCG
XI0_224 VD VD WL_220 WL_220 VSS VDD RA1SHD8192X64CCG
XI0_225 VD VD WL_221 WL_221 VSS VDD RA1SHD8192X64CCG
XI0_226 VD VD WL_222 WL_222 VSS VDD RA1SHD8192X64CCG
XI0_227 VD VD WL_223 WL_223 VSS VDD RA1SHD8192X64CCG
XI0_228 VD VD WL_224 WL_224 VSS VDD RA1SHD8192X64CCG
XI0_229 VD VD WL_225 WL_225 VSS VDD RA1SHD8192X64CCG
XI0_23 VD VD WL_19 WL_19 VSS VDD RA1SHD8192X64CCG
XI0_230 VD VD WL_226 WL_226 VSS VDD RA1SHD8192X64CCG
XI0_231 VD VD WL_227 WL_227 VSS VDD RA1SHD8192X64CCG
XI0_232 VD VD WL_228 WL_228 VSS VDD RA1SHD8192X64CCG
XI0_233 VD VD WL_229 WL_229 VSS VDD RA1SHD8192X64CCG
XI0_234 VD VD WL_230 WL_230 VSS VDD RA1SHD8192X64CCG
XI0_235 VD VD WL_231 WL_231 VSS VDD RA1SHD8192X64CCG
XI0_236 VD VD WL_232 WL_232 VSS VDD RA1SHD8192X64CCG
XI0_237 VD VD WL_233 WL_233 VSS VDD RA1SHD8192X64CCG
XI0_238 VD VD WL_234 WL_234 VSS VDD RA1SHD8192X64CCG
XI0_239 VD VD WL_235 WL_235 VSS VDD RA1SHD8192X64CCG
XI0_24 VD VD WL_20 WL_20 VSS VDD RA1SHD8192X64CCG
XI0_240 VD VD WL_236 WL_236 VSS VDD RA1SHD8192X64CCG
XI0_241 VD VD WL_237 WL_237 VSS VDD RA1SHD8192X64CCG
XI0_242 VD VD WL_238 WL_238 VSS VDD RA1SHD8192X64CCG
XI0_243 VD VD WL_239 WL_239 VSS VDD RA1SHD8192X64CCG
XI0_244 VD VD WL_240 WL_240 VSS VDD RA1SHD8192X64CCG
XI0_245 VD VD WL_241 WL_241 VSS VDD RA1SHD8192X64CCG
XI0_246 VD VD WL_242 WL_242 VSS VDD RA1SHD8192X64CCG
XI0_247 VD VD WL_243 WL_243 VSS VDD RA1SHD8192X64CCG
XI0_248 VD VD WL_244 WL_244 VSS VDD RA1SHD8192X64CCG
XI0_249 VD VD WL_245 WL_245 VSS VDD RA1SHD8192X64CCG
XI0_25 VD VD WL_21 WL_21 VSS VDD RA1SHD8192X64CCG
XI0_250 VD VD WL_246 WL_246 VSS VDD RA1SHD8192X64CCG
XI0_251 VD VD WL_247 WL_247 VSS VDD RA1SHD8192X64CCG
XI0_252 VD VD WL_248 WL_248 VSS VDD RA1SHD8192X64CCG
XI0_253 VD VD WL_249 WL_249 VSS VDD RA1SHD8192X64CCG
XI0_254 VD VD WL_250 WL_250 VSS VDD RA1SHD8192X64CCG
XI0_255 VD VD WL_251 WL_251 VSS VDD RA1SHD8192X64CCG
XI0_256 VD VD WL_252 WL_252 VSS VDD RA1SHD8192X64CCG
XI0_257 VD VD WL_253 WL_253 VSS VDD RA1SHD8192X64CCG
XI0_258 VD VD WL_254 WL_254 VSS VDD RA1SHD8192X64CCG
XI0_259 VD VD WL_255 WL_255 VSS VDD RA1SHD8192X64CCG
XI0_26 VD VD WL_22 WL_22 VSS VDD RA1SHD8192X64CCG
XI0_260 VD VD WL_256 WL_256 VSS VDD RA1SHD8192X64CCG
XI0_261 VD VD WL_257 WL_257 VSS VDD RA1SHD8192X64CCG
XI0_262 VD VD WL_258 WL_258 VSS VDD RA1SHD8192X64CCG
XI0_263 VD VD WL_259 WL_259 VSS VDD RA1SHD8192X64CCG
XI0_264 VD VD WL_260 WL_260 VSS VDD RA1SHD8192X64CCG
XI0_265 VD VD WL_261 WL_261 VSS VDD RA1SHD8192X64CCG
XI0_266 VD VD WL_262 WL_262 VSS VDD RA1SHD8192X64CCG
XI0_267 VD VD WL_263 WL_263 VSS VDD RA1SHD8192X64CCG
XI0_268 VD VD WL_264 WL_264 VSS VDD RA1SHD8192X64CCG
XI0_269 VD VD WL_265 WL_265 VSS VDD RA1SHD8192X64CCG
XI0_27 VD VD WL_23 WL_23 VSS VDD RA1SHD8192X64CCG
XI0_270 VD VD WL_266 WL_266 VSS VDD RA1SHD8192X64CCG
XI0_271 VD VD WL_267 WL_267 VSS VDD RA1SHD8192X64CCG
XI0_272 VD VD WL_268 WL_268 VSS VDD RA1SHD8192X64CCG
XI0_273 VD VD WL_269 WL_269 VSS VDD RA1SHD8192X64CCG
XI0_274 VD VD WL_270 WL_270 VSS VDD RA1SHD8192X64CCG
XI0_275 VD VD WL_271 WL_271 VSS VDD RA1SHD8192X64CCG
XI0_276 VD VD WL_272 WL_272 VSS VDD RA1SHD8192X64CCG
XI0_277 VD VD WL_273 WL_273 VSS VDD RA1SHD8192X64CCG
XI0_278 VD VD WL_274 WL_274 VSS VDD RA1SHD8192X64CCG
XI0_279 VD VD WL_275 WL_275 VSS VDD RA1SHD8192X64CCG
XI0_28 VD VD WL_24 WL_24 VSS VDD RA1SHD8192X64CCG
XI0_280 VD VD WL_276 WL_276 VSS VDD RA1SHD8192X64CCG
XI0_281 VD VD WL_277 WL_277 VSS VDD RA1SHD8192X64CCG
XI0_282 VD VD WL_278 WL_278 VSS VDD RA1SHD8192X64CCG
XI0_283 VD VD WL_279 WL_279 VSS VDD RA1SHD8192X64CCG
XI0_284 VD VD WL_280 WL_280 VSS VDD RA1SHD8192X64CCG
XI0_285 VD VD WL_281 WL_281 VSS VDD RA1SHD8192X64CCG
XI0_286 VD VD WL_282 WL_282 VSS VDD RA1SHD8192X64CCG
XI0_287 VD VD WL_283 WL_283 VSS VDD RA1SHD8192X64CCG
XI0_288 VD VD WL_284 WL_284 VSS VDD RA1SHD8192X64CCG
XI0_289 VD VD WL_285 WL_285 VSS VDD RA1SHD8192X64CCG
XI0_29 VD VD WL_25 WL_25 VSS VDD RA1SHD8192X64CCG
XI0_290 VD VD WL_286 WL_286 VSS VDD RA1SHD8192X64CCG
XI0_291 VD VD WL_287 WL_287 VSS VDD RA1SHD8192X64CCG
XI0_292 VD VD WL_288 WL_288 VSS VDD RA1SHD8192X64CCG
XI0_293 VD VD WL_289 WL_289 VSS VDD RA1SHD8192X64CCG
XI0_294 VD VD WL_290 WL_290 VSS VDD RA1SHD8192X64CCG
XI0_295 VD VD WL_291 WL_291 VSS VDD RA1SHD8192X64CCG
XI0_296 VD VD WL_292 WL_292 VSS VDD RA1SHD8192X64CCG
XI0_297 VD VD WL_293 WL_293 VSS VDD RA1SHD8192X64CCG
XI0_298 VD VD WL_294 WL_294 VSS VDD RA1SHD8192X64CCG
XI0_299 VD VD WL_295 WL_295 VSS VDD RA1SHD8192X64CCG
XI0_3 VD VD WL WL VSS VDD RA1SHD8192X64CCG
XI0_30 VD VD WL_26 WL_26 VSS VDD RA1SHD8192X64CCG
XI0_300 VD VD WL_296 WL_296 VSS VDD RA1SHD8192X64CCG
XI0_301 VD VD WL_297 WL_297 VSS VDD RA1SHD8192X64CCG
XI0_302 VD VD WL_298 WL_298 VSS VDD RA1SHD8192X64CCG
XI0_303 VD VD WL_299 WL_299 VSS VDD RA1SHD8192X64CCG
XI0_304 VD VD WL_300 WL_300 VSS VDD RA1SHD8192X64CCG
XI0_305 VD VD WL_301 WL_301 VSS VDD RA1SHD8192X64CCG
XI0_306 VD VD WL_302 WL_302 VSS VDD RA1SHD8192X64CCG
XI0_307 VD VD WL_303 WL_303 VSS VDD RA1SHD8192X64CCG
XI0_308 VD VD WL_304 WL_304 VSS VDD RA1SHD8192X64CCG
XI0_309 VD VD WL_305 WL_305 VSS VDD RA1SHD8192X64CCG
XI0_31 VD VD WL_27 WL_27 VSS VDD RA1SHD8192X64CCG
XI0_310 VD VD WL_306 WL_306 VSS VDD RA1SHD8192X64CCG
XI0_311 VD VD WL_307 WL_307 VSS VDD RA1SHD8192X64CCG
XI0_312 VD VD WL_308 WL_308 VSS VDD RA1SHD8192X64CCG
XI0_313 VD VD WL_309 WL_309 VSS VDD RA1SHD8192X64CCG
XI0_314 VD VD WL_310 WL_310 VSS VDD RA1SHD8192X64CCG
XI0_315 VD VD WL_311 WL_311 VSS VDD RA1SHD8192X64CCG
XI0_316 VD VD WL_312 WL_312 VSS VDD RA1SHD8192X64CCG
XI0_317 VD VD WL_313 WL_313 VSS VDD RA1SHD8192X64CCG
XI0_318 VD VD WL_314 WL_314 VSS VDD RA1SHD8192X64CCG
XI0_319 VD VD WL_315 WL_315 VSS VDD RA1SHD8192X64CCG
XI0_32 VD VD WL_28 WL_28 VSS VDD RA1SHD8192X64CCG
XI0_320 VD VD WL_316 WL_316 VSS VDD RA1SHD8192X64CCG
XI0_321 VD VD WL_317 WL_317 VSS VDD RA1SHD8192X64CCG
XI0_322 VD VD WL_318 WL_318 VSS VDD RA1SHD8192X64CCG
XI0_323 VD VD WL_319 WL_319 VSS VDD RA1SHD8192X64CCG
XI0_324 VD VD WL_320 WL_320 VSS VDD RA1SHD8192X64CCG
XI0_325 VD VD WL_321 WL_321 VSS VDD RA1SHD8192X64CCG
XI0_326 VD VD WL_322 WL_322 VSS VDD RA1SHD8192X64CCG
XI0_327 VD VD WL_323 WL_323 VSS VDD RA1SHD8192X64CCG
XI0_328 VD VD WL_324 WL_324 VSS VDD RA1SHD8192X64CCG
XI0_329 VD VD WL_325 WL_325 VSS VDD RA1SHD8192X64CCG
XI0_33 VD VD WL_29 WL_29 VSS VDD RA1SHD8192X64CCG
XI0_330 VD VD WL_326 WL_326 VSS VDD RA1SHD8192X64CCG
XI0_331 VD VD WL_327 WL_327 VSS VDD RA1SHD8192X64CCG
XI0_332 VD VD WL_328 WL_328 VSS VDD RA1SHD8192X64CCG
XI0_333 VD VD WL_329 WL_329 VSS VDD RA1SHD8192X64CCG
XI0_334 VD VD WL_330 WL_330 VSS VDD RA1SHD8192X64CCG
XI0_335 VD VD WL_331 WL_331 VSS VDD RA1SHD8192X64CCG
XI0_336 VD VD WL_332 WL_332 VSS VDD RA1SHD8192X64CCG
XI0_337 VD VD WL_333 WL_333 VSS VDD RA1SHD8192X64CCG
XI0_338 VD VD WL_334 WL_334 VSS VDD RA1SHD8192X64CCG
XI0_339 VD VD WL_335 WL_335 VSS VDD RA1SHD8192X64CCG
XI0_34 VD VD WL_30 WL_30 VSS VDD RA1SHD8192X64CCG
XI0_340 VD VD WL_336 WL_336 VSS VDD RA1SHD8192X64CCG
XI0_341 VD VD WL_337 WL_337 VSS VDD RA1SHD8192X64CCG
XI0_342 VD VD WL_338 WL_338 VSS VDD RA1SHD8192X64CCG
XI0_343 VD VD WL_339 WL_339 VSS VDD RA1SHD8192X64CCG
XI0_344 VD VD WL_340 WL_340 VSS VDD RA1SHD8192X64CCG
XI0_345 VD VD WL_341 WL_341 VSS VDD RA1SHD8192X64CCG
XI0_346 VD VD WL_342 WL_342 VSS VDD RA1SHD8192X64CCG
XI0_347 VD VD WL_343 WL_343 VSS VDD RA1SHD8192X64CCG
XI0_348 VD VD WL_344 WL_344 VSS VDD RA1SHD8192X64CCG
XI0_349 VD VD WL_345 WL_345 VSS VDD RA1SHD8192X64CCG
XI0_35 VD VD WL_31 WL_31 VSS VDD RA1SHD8192X64CCG
XI0_350 VD VD WL_346 WL_346 VSS VDD RA1SHD8192X64CCG
XI0_351 VD VD WL_347 WL_347 VSS VDD RA1SHD8192X64CCG
XI0_352 VD VD WL_348 WL_348 VSS VDD RA1SHD8192X64CCG
XI0_353 VD VD WL_349 WL_349 VSS VDD RA1SHD8192X64CCG
XI0_354 VD VD WL_350 WL_350 VSS VDD RA1SHD8192X64CCG
XI0_355 VD VD WL_351 WL_351 VSS VDD RA1SHD8192X64CCG
XI0_356 VD VD WL_352 WL_352 VSS VDD RA1SHD8192X64CCG
XI0_357 VD VD WL_353 WL_353 VSS VDD RA1SHD8192X64CCG
XI0_358 VD VD WL_354 WL_354 VSS VDD RA1SHD8192X64CCG
XI0_359 VD VD WL_355 WL_355 VSS VDD RA1SHD8192X64CCG
XI0_36 VD VD WL_32 WL_32 VSS VDD RA1SHD8192X64CCG
XI0_360 VD VD WL_356 WL_356 VSS VDD RA1SHD8192X64CCG
XI0_361 VD VD WL_357 WL_357 VSS VDD RA1SHD8192X64CCG
XI0_362 VD VD WL_358 WL_358 VSS VDD RA1SHD8192X64CCG
XI0_363 VD VD WL_359 WL_359 VSS VDD RA1SHD8192X64CCG
XI0_364 VD VD WL_360 WL_360 VSS VDD RA1SHD8192X64CCG
XI0_365 VD VD WL_361 WL_361 VSS VDD RA1SHD8192X64CCG
XI0_366 VD VD WL_362 WL_362 VSS VDD RA1SHD8192X64CCG
XI0_367 VD VD WL_363 WL_363 VSS VDD RA1SHD8192X64CCG
XI0_368 VD VD WL_364 WL_364 VSS VDD RA1SHD8192X64CCG
XI0_369 VD VD WL_365 WL_365 VSS VDD RA1SHD8192X64CCG
XI0_37 VD VD WL_33 WL_33 VSS VDD RA1SHD8192X64CCG
XI0_370 VD VD WL_366 WL_366 VSS VDD RA1SHD8192X64CCG
XI0_371 VD VD WL_367 WL_367 VSS VDD RA1SHD8192X64CCG
XI0_372 VD VD WL_368 WL_368 VSS VDD RA1SHD8192X64CCG
XI0_373 VD VD WL_369 WL_369 VSS VDD RA1SHD8192X64CCG
XI0_374 VD VD WL_370 WL_370 VSS VDD RA1SHD8192X64CCG
XI0_375 VD VD WL_371 WL_371 VSS VDD RA1SHD8192X64CCG
XI0_376 VD VD WL_372 WL_372 VSS VDD RA1SHD8192X64CCG
XI0_377 VD VD WL_373 WL_373 VSS VDD RA1SHD8192X64CCG
XI0_378 VD VD WL_374 WL_374 VSS VDD RA1SHD8192X64CCG
XI0_379 VD VD WL_375 WL_375 VSS VDD RA1SHD8192X64CCG
XI0_38 VD VD WL_34 WL_34 VSS VDD RA1SHD8192X64CCG
XI0_380 VD VD WL_376 WL_376 VSS VDD RA1SHD8192X64CCG
XI0_381 VD VD WL_377 WL_377 VSS VDD RA1SHD8192X64CCG
XI0_382 VD VD WL_378 WL_378 VSS VDD RA1SHD8192X64CCG
XI0_383 VD VD WL_379 WL_379 VSS VDD RA1SHD8192X64CCG
XI0_384 VD VD WL_380 WL_380 VSS VDD RA1SHD8192X64CCG
XI0_385 VD VD WL_381 WL_381 VSS VDD RA1SHD8192X64CCG
XI0_386 VD VD WL_382 WL_382 VSS VDD RA1SHD8192X64CCG
XI0_387 VD VD WL_383 WL_383 VSS VDD RA1SHD8192X64CCG
XI0_388 VD VD WL_384 WL_384 VSS VDD RA1SHD8192X64CCG
XI0_389 VD VD WL_385 WL_385 VSS VDD RA1SHD8192X64CCG
XI0_39 VD VD WL_35 WL_35 VSS VDD RA1SHD8192X64CCG
XI0_390 VD VD WL_386 WL_386 VSS VDD RA1SHD8192X64CCG
XI0_391 VD VD WL_387 WL_387 VSS VDD RA1SHD8192X64CCG
XI0_392 VD VD WL_388 WL_388 VSS VDD RA1SHD8192X64CCG
XI0_393 VD VD WL_389 WL_389 VSS VDD RA1SHD8192X64CCG
XI0_394 VD VD WL_390 WL_390 VSS VDD RA1SHD8192X64CCG
XI0_395 VD VD WL_391 WL_391 VSS VDD RA1SHD8192X64CCG
XI0_396 VD VD WL_392 WL_392 VSS VDD RA1SHD8192X64CCG
XI0_397 VD VD WL_393 WL_393 VSS VDD RA1SHD8192X64CCG
XI0_398 VD VD WL_394 WL_394 VSS VDD RA1SHD8192X64CCG
XI0_399 VD VD WL_395 WL_395 VSS VDD RA1SHD8192X64CCG
XI0_4 VD VD WL_0 WL_0 VSS VDD RA1SHD8192X64CCG
XI0_40 VD VD WL_36 WL_36 VSS VDD RA1SHD8192X64CCG
XI0_400 VD VD WL_396 WL_396 VSS VDD RA1SHD8192X64CCG
XI0_401 VD VD WL_397 WL_397 VSS VDD RA1SHD8192X64CCG
XI0_402 VD VD WL_398 WL_398 VSS VDD RA1SHD8192X64CCG
XI0_403 VD VD WL_399 WL_399 VSS VDD RA1SHD8192X64CCG
XI0_404 VD VD WL_400 WL_400 VSS VDD RA1SHD8192X64CCG
XI0_405 VD VD WL_401 WL_401 VSS VDD RA1SHD8192X64CCG
XI0_406 VD VD WL_402 WL_402 VSS VDD RA1SHD8192X64CCG
XI0_407 VD VD WL_403 WL_403 VSS VDD RA1SHD8192X64CCG
XI0_408 VD VD WL_404 WL_404 VSS VDD RA1SHD8192X64CCG
XI0_409 VD VD WL_405 WL_405 VSS VDD RA1SHD8192X64CCG
XI0_41 VD VD WL_37 WL_37 VSS VDD RA1SHD8192X64CCG
XI0_410 VD VD WL_406 WL_406 VSS VDD RA1SHD8192X64CCG
XI0_411 VD VD WL_407 WL_407 VSS VDD RA1SHD8192X64CCG
XI0_412 VD VD WL_408 WL_408 VSS VDD RA1SHD8192X64CCG
XI0_413 VD VD WL_409 WL_409 VSS VDD RA1SHD8192X64CCG
XI0_414 VD VD WL_410 WL_410 VSS VDD RA1SHD8192X64CCG
XI0_415 VD VD WL_411 WL_411 VSS VDD RA1SHD8192X64CCG
XI0_416 VD VD WL_412 WL_412 VSS VDD RA1SHD8192X64CCG
XI0_417 VD VD WL_413 WL_413 VSS VDD RA1SHD8192X64CCG
XI0_418 VD VD WL_414 WL_414 VSS VDD RA1SHD8192X64CCG
XI0_419 VD VD WL_415 WL_415 VSS VDD RA1SHD8192X64CCG
XI0_42 VD VD WL_38 WL_38 VSS VDD RA1SHD8192X64CCG
XI0_420 VD VD WL_416 WL_416 VSS VDD RA1SHD8192X64CCG
XI0_421 VD VD WL_417 WL_417 VSS VDD RA1SHD8192X64CCG
XI0_422 VD VD WL_418 WL_418 VSS VDD RA1SHD8192X64CCG
XI0_423 VD VD WL_419 WL_419 VSS VDD RA1SHD8192X64CCG
XI0_424 VD VD WL_420 WL_420 VSS VDD RA1SHD8192X64CCG
XI0_425 VD VD WL_421 WL_421 VSS VDD RA1SHD8192X64CCG
XI0_426 VD VD WL_422 WL_422 VSS VDD RA1SHD8192X64CCG
XI0_427 VD VD WL_423 WL_423 VSS VDD RA1SHD8192X64CCG
XI0_428 VD VD WL_424 WL_424 VSS VDD RA1SHD8192X64CCG
XI0_429 VD VD WL_425 WL_425 VSS VDD RA1SHD8192X64CCG
XI0_43 VD VD WL_39 WL_39 VSS VDD RA1SHD8192X64CCG
XI0_430 VD VD WL_426 WL_426 VSS VDD RA1SHD8192X64CCG
XI0_431 VD VD WL_427 WL_427 VSS VDD RA1SHD8192X64CCG
XI0_432 VD VD WL_428 WL_428 VSS VDD RA1SHD8192X64CCG
XI0_433 VD VD WL_429 WL_429 VSS VDD RA1SHD8192X64CCG
XI0_434 VD VD WL_430 WL_430 VSS VDD RA1SHD8192X64CCG
XI0_435 VD VD WL_431 WL_431 VSS VDD RA1SHD8192X64CCG
XI0_436 VD VD WL_432 WL_432 VSS VDD RA1SHD8192X64CCG
XI0_437 VD VD WL_433 WL_433 VSS VDD RA1SHD8192X64CCG
XI0_438 VD VD WL_434 WL_434 VSS VDD RA1SHD8192X64CCG
XI0_439 VD VD WL_435 WL_435 VSS VDD RA1SHD8192X64CCG
XI0_44 VD VD WL_40 WL_40 VSS VDD RA1SHD8192X64CCG
XI0_440 VD VD WL_436 WL_436 VSS VDD RA1SHD8192X64CCG
XI0_441 VD VD WL_437 WL_437 VSS VDD RA1SHD8192X64CCG
XI0_442 VD VD WL_438 WL_438 VSS VDD RA1SHD8192X64CCG
XI0_443 VD VD WL_439 WL_439 VSS VDD RA1SHD8192X64CCG
XI0_444 VD VD WL_440 WL_440 VSS VDD RA1SHD8192X64CCG
XI0_445 VD VD WL_441 WL_441 VSS VDD RA1SHD8192X64CCG
XI0_446 VD VD WL_442 WL_442 VSS VDD RA1SHD8192X64CCG
XI0_447 VD VD WL_443 WL_443 VSS VDD RA1SHD8192X64CCG
XI0_448 VD VD WL_444 WL_444 VSS VDD RA1SHD8192X64CCG
XI0_449 VD VD WL_445 WL_445 VSS VDD RA1SHD8192X64CCG
XI0_45 VD VD WL_41 WL_41 VSS VDD RA1SHD8192X64CCG
XI0_450 VD VD WL_446 WL_446 VSS VDD RA1SHD8192X64CCG
XI0_451 VD VD WL_447 WL_447 VSS VDD RA1SHD8192X64CCG
XI0_452 VD VD WL_448 WL_448 VSS VDD RA1SHD8192X64CCG
XI0_453 VD VD WL_449 WL_449 VSS VDD RA1SHD8192X64CCG
XI0_454 VD VD WL_450 WL_450 VSS VDD RA1SHD8192X64CCG
XI0_455 VD VD WL_451 WL_451 VSS VDD RA1SHD8192X64CCG
XI0_456 VD VD WL_452 WL_452 VSS VDD RA1SHD8192X64CCG
XI0_457 VD VD WL_453 WL_453 VSS VDD RA1SHD8192X64CCG
XI0_458 VD VD WL_454 WL_454 VSS VDD RA1SHD8192X64CCG
XI0_459 VD VD WL_455 WL_455 VSS VDD RA1SHD8192X64CCG
XI0_46 VD VD WL_42 WL_42 VSS VDD RA1SHD8192X64CCG
XI0_460 VD VD WL_456 WL_456 VSS VDD RA1SHD8192X64CCG
XI0_461 VD VD WL_457 WL_457 VSS VDD RA1SHD8192X64CCG
XI0_462 VD VD WL_458 WL_458 VSS VDD RA1SHD8192X64CCG
XI0_463 VD VD WL_459 WL_459 VSS VDD RA1SHD8192X64CCG
XI0_464 VD VD WL_460 WL_460 VSS VDD RA1SHD8192X64CCG
XI0_465 VD VD WL_461 WL_461 VSS VDD RA1SHD8192X64CCG
XI0_466 VD VD WL_462 WL_462 VSS VDD RA1SHD8192X64CCG
XI0_467 VD VD WL_463 WL_463 VSS VDD RA1SHD8192X64CCG
XI0_468 VD VD WL_464 WL_464 VSS VDD RA1SHD8192X64CCG
XI0_469 VD VD WL_465 WL_465 VSS VDD RA1SHD8192X64CCG
XI0_47 VD VD WL_43 WL_43 VSS VDD RA1SHD8192X64CCG
XI0_470 VD VD WL_466 WL_466 VSS VDD RA1SHD8192X64CCG
XI0_471 VD VD WL_467 WL_467 VSS VDD RA1SHD8192X64CCG
XI0_472 VD VD WL_468 WL_468 VSS VDD RA1SHD8192X64CCG
XI0_473 VD VD WL_469 WL_469 VSS VDD RA1SHD8192X64CCG
XI0_474 VD VD WL_470 WL_470 VSS VDD RA1SHD8192X64CCG
XI0_475 VD VD WL_471 WL_471 VSS VDD RA1SHD8192X64CCG
XI0_476 VD VD WL_472 WL_472 VSS VDD RA1SHD8192X64CCG
XI0_477 VD VD WL_473 WL_473 VSS VDD RA1SHD8192X64CCG
XI0_478 VD VD WL_474 WL_474 VSS VDD RA1SHD8192X64CCG
XI0_479 VD VD WL_475 WL_475 VSS VDD RA1SHD8192X64CCG
XI0_48 VD VD WL_44 WL_44 VSS VDD RA1SHD8192X64CCG
XI0_480 VD VD WL_476 WL_476 VSS VDD RA1SHD8192X64CCG
XI0_481 VD VD WL_477 WL_477 VSS VDD RA1SHD8192X64CCG
XI0_482 VD VD WL_478 WL_478 VSS VDD RA1SHD8192X64CCG
XI0_483 VD VD WL_479 WL_479 VSS VDD RA1SHD8192X64CCG
XI0_484 VD VD WL_480 WL_480 VSS VDD RA1SHD8192X64CCG
XI0_485 VD VD WL_481 WL_481 VSS VDD RA1SHD8192X64CCG
XI0_486 VD VD WL_482 WL_482 VSS VDD RA1SHD8192X64CCG
XI0_487 VD VD WL_483 WL_483 VSS VDD RA1SHD8192X64CCG
XI0_488 VD VD WL_484 WL_484 VSS VDD RA1SHD8192X64CCG
XI0_489 VD VD WL_485 WL_485 VSS VDD RA1SHD8192X64CCG
XI0_49 VD VD WL_45 WL_45 VSS VDD RA1SHD8192X64CCG
XI0_490 VD VD WL_486 WL_486 VSS VDD RA1SHD8192X64CCG
XI0_491 VD VD WL_487 WL_487 VSS VDD RA1SHD8192X64CCG
XI0_492 VD VD WL_488 WL_488 VSS VDD RA1SHD8192X64CCG
XI0_493 VD VD WL_489 WL_489 VSS VDD RA1SHD8192X64CCG
XI0_494 VD VD WL_490 WL_490 VSS VDD RA1SHD8192X64CCG
XI0_495 VD VD WL_491 WL_491 VSS VDD RA1SHD8192X64CCG
XI0_496 VD VD WL_492 WL_492 VSS VDD RA1SHD8192X64CCG
XI0_497 VD VD WL_493 WL_493 VSS VDD RA1SHD8192X64CCG
XI0_498 VD VD WL_494 WL_494 VSS VDD RA1SHD8192X64CCG
XI0_499 VD VD WL_495 WL_495 VSS VDD RA1SHD8192X64CCG
XI0_5 VD VD WL_1 WL_1 VSS VDD RA1SHD8192X64CCG
XI0_50 VD VD WL_46 WL_46 VSS VDD RA1SHD8192X64CCG
XI0_500 VD VD WL_496 WL_496 VSS VDD RA1SHD8192X64CCG
XI0_501 VD VD WL_497 WL_497 VSS VDD RA1SHD8192X64CCG
XI0_502 VD VD WL_498 WL_498 VSS VDD RA1SHD8192X64CCG
XI0_503 VD VD WL_499 WL_499 VSS VDD RA1SHD8192X64CCG
XI0_504 VD VD WL_500 WL_500 VSS VDD RA1SHD8192X64CCG
XI0_505 VD VD WL_501 WL_501 VSS VDD RA1SHD8192X64CCG
XI0_506 VD VD WL_502 WL_502 VSS VDD RA1SHD8192X64CCG
XI0_507 VD VD WL_503 WL_503 VSS VDD RA1SHD8192X64CCG
XI0_508 VD VD WL_504 WL_504 VSS VDD RA1SHD8192X64CCG
XI0_509 VD VD WL_505 WL_505 VSS VDD RA1SHD8192X64CCG
XI0_51 VD VD WL_47 WL_47 VSS VDD RA1SHD8192X64CCG