.SUBCKT AD1UHDV1 A B CI CO S VDD VSS VNW VPW
MM27 CO net111 VDD VNW p18 W=0.95u L=180.00n
MM25 S net79 VDD VNW p18 W=1.01u L=180.00n
MM23 net31 CI VDD VNW p18 W=580.0n L=180.00n
MM19 net31 A VDD VNW p18 W=0.545u L=180.00n
MM18 net31 B VDD VNW p18 W=580.0n L=180.00n
MM17 net79 net111 net31 VNW p18 W=580.0n L=180.00n
MM15 net18 CI VDD VNW p18 W=580.0n L=180.00n
MM12 net22 B net18 VNW p18 W=580.0n L=180.00n
MM11 net79 A net22 VNW p18 W=0.44u L=180.00n
MM8 net111 A net42 VNW p18 W=0.49u L=180.00n
MM7 net42 B VDD VNW p18 W=580.0n L=180.00n
MM4 net111 CI net55 VNW p18 W=580.0n L=180.00n
MM3 net55 B VDD VNW p18 W=580.0n L=180.00n
MM1 net55 A VDD VNW p18 W=580.0n L=180.00n
MM28 CO net111 VSS VPW n18 W=720.00n L=180.00n
MM26 S net79 VSS VPW n18 W=720.00n L=180.00n
MM24 net91 CI VSS VPW n18 W=430.00n L=180.00n
MM22 net79 net111 net91 VPW n18 W=430.00n L=180.00n
MM21 net91 B VSS VPW n18 W=430.00n L=180.00n
MM20 net91 A VSS VPW n18 W=430.00n L=180.00n
MM16 net67 CI VSS VPW n18 W=430.00n L=180.00n
MM14 net71 B net67 VPW n18 W=340.00n L=180.00n
MM13 net79 A net71 VPW n18 W=340.00n L=180.00n
MM10 net111 A net99 VPW n18 W=340.00n L=180.00n
MM9 net99 B VSS VPW n18 W=340.00n L=180.00n
MM6 net111 CI net103 VPW n18 W=430.00n L=180.00n
MM5 net103 B VSS VPW n18 W=430.00n L=180.00n
MM2 net103 A VSS VPW n18 W=0.42u L=180.00n
.ENDS AD1UHDV1
.SUBCKT AD1UHDV2 A B CI CO S VDD VSS VNW VPW
MM6 net3 CI net11 VPW n18 W=630.00n L=180.00n
MM5 net11 B VSS VPW n18 W=0.5u L=180.00n
MM2 net11 A VSS VPW n18 W=720.00n L=180.00n
MM9 net15 B VSS VPW n18 W=0.5u L=180.00n
MM10 net3 A net15 VPW n18 W=800.00n L=180.00n
MM20 net23 A VSS VPW n18 W=720.00n L=180.00n
MM21 net23 B VSS VPW n18 W=720.00n L=180.00n
MM24 net23 CI VSS VPW n18 W=540.00n L=180.00n
MM22 net35 net3 net23 VPW n18 W=720.00n L=180.00n
MM13 net35 A net43 VPW n18 W=400.00n L=180.00n
MM14 net43 B net47 VPW n18 W=400.00n L=180.00n
MM16 net47 CI VSS VPW n18 W=770.00n L=180.00n
MM26 S net35 VSS VPW n18 W=1.44u L=180.00n
MM28 CO net3 VSS VPW n18 W=1.44u L=180.00n
MM1 net59 A VDD VNW p18 W=990.0n L=180.00n
MM3 net59 B VDD VNW p18 W=0.69u L=180.00n
MM4 net3 CI net59 VNW p18 W=990.0n L=180.00n
MM7 net78 B VDD VNW p18 W=720.0n L=180.00n
MM8 net3 A net78 VNW p18 W=490.0n L=180.00n
MM18 net83 B VDD VNW p18 W=0.58u L=180.00n
MM19 net83 A VDD VNW p18 W=0.545u L=180.00n
MM23 net83 CI VDD VNW p18 W=0.98u L=180.00n
MM17 net35 net3 net83 VNW p18 W=0.95u L=180.00n
MM11 net35 A net98 VNW p18 W=0.44u L=180.00n
MM12 net98 B net102 VNW p18 W=0.83u L=180.00n
MM15 net102 CI VDD VNW p18 W=0.85u L=180.00n
MM25 S net35 VDD VNW p18 W=2.02u L=180.00n
MM27 CO net3 VDD VNW p18 W=2.02u L=180.00n
.ENDS AD1UHDV2
.SUBCKT ADH1UHDV1 A B CO S VDD VSS VNW VPW
MM12 S net053 VSS VPW n18 W=720.00n L=180.00n
MM11 net056 net20 VSS VPW n18 W=0.72u L=180.00n
MM5 net053 B net056 VPW n18 W=0.385u L=180.00n
MM4 net053 A net056 VPW n18 W=0.385u L=180.00n
MM2 CO net20 VSS VPW n18 W=720.00n L=180.00n
MM9 net8 B VSS VPW n18 W=0.475u L=180.00n
MM10 net20 A net8 VPW n18 W=0.475u L=180.00n
MM6 net053 net20 VDD VNW p18 W=0.595u L=180.00n
MM7 net080 A VDD VNW p18 W=0.595u L=180.00n
MM13 S net053 VDD VNW p18 W=1.01u L=180.00n
MM8 net053 B net080 VNW p18 W=0.595u L=180.00n
MM0 CO net20 VDD VNW p18 W=1.01u L=180.00n
MM1 net20 A VDD VNW p18 W=0.595u L=180.00n
MM3 net20 B VDD VNW p18 W=0.595u L=180.00n
.ENDS ADH1UHDV1
.SUBCKT ADH1UHDV2 A B CO S VDD VSS VNW VPW
MM3 net9 B VDD VNW p18 W=0.97u L=180.00n
MM1 net9 A VDD VNW p18 W=0.97u L=180.00n
MM0 CO net9 VDD VNW p18 W=2.02u L=180.00n
MM6 net45 net9 VDD VNW p18 W=0.65u L=180.00n
MM8 net45 B net24 VNW p18 W=950.0n L=180.00n
MM7 net24 A VDD VNW p18 W=950.0n L=180.00n
MM13 S net45 VDD VNW p18 W=2.02u L=180.00n
MM10 net9 A net37 VPW n18 W=0.635u L=180.00n
MM9 net37 B VSS VPW n18 W=0.635u L=180.00n
MM2 CO net9 VSS VPW n18 W=1.36u L=180.00n
MM4 net45 A net48 VPW n18 W=0.635u L=180.00n
MM5 net45 B net48 VPW n18 W=0.635u L=180.00n
MM11 net48 net9 VSS VPW n18 W=0.635u L=180.00n
MM12 S net45 VSS VPW n18 W=1.44u L=180.00n
.ENDS ADH1UHDV2
.SUBCKT ADH1UHDV3 A B CO S VDD VSS VNW VPW
MM12 S net17 VSS VPW n18 W=2.16u L=180.00n
MM11 net20 net53 VSS VPW n18 W=720.00n L=180.00n
MM5 net17 B net20 VPW n18 W=720.00n L=180.00n
MM4 net17 A net20 VPW n18 W=720.00n L=180.00n
MM2 CO net53 VSS VPW n18 W=2.16u L=180.00n
MM9 net25 B VSS VPW n18 W=720.00n L=180.00n
MM10 net53 A net25 VPW n18 W=720.00n L=180.00n
MM13 S net17 VDD VNW p18 W=3.03u L=180.00n
MM7 net44 A VDD VNW p18 W=0.95u L=180.00n
MM8 net17 B net44 VNW p18 W=0.95u L=180.00n
MM6 net17 net53 VDD VNW p18 W=0.95u L=180.00n
MM0 CO net53 VDD VNW p18 W=3.03u L=180.00n
MM1 net53 A VDD VNW p18 W=0.97u L=180.00n
MM3 net53 B VDD VNW p18 W=0.97u L=180.00n
.ENDS ADH1UHDV3
.SUBCKT AND2UHDV0P4 A1 A2 Z VDD VSS VNW VPW
MM4 Z net24 VSS VPW n18 W=0.28u L=180.00n
MM3 net24 A1 net8 VPW n18 W=0.28u L=180.00n
MM5 net8 A2 VSS VPW n18 W=0.28u L=180.00n
MM1 Z net24 VDD VNW p18 W=0.475u L=180.00n
MM0 net24 A2 VDD VNW p18 W=0.475u L=180.00n
MM2 net24 A1 VDD VNW p18 W=0.475u L=180.00n
.ENDS AND2UHDV0P4
****Sub-Circuit for AND2UHDV0P7, Tue Jun 13 18:01:17 CST 2017****
.SUBCKT AND2UHDV0P7 A1 A2 Z VDD VSS VNW VPW
MM3 net4 A1 net20 VPW n18 W=475.00n L=180.00n
MM5 net20 A2 VSS VPW n18 W=475.00n L=180.00n
MM4 Z net4 VSS VPW n18 W=560.00n L=180.00n
MM2 net4 A1 VDD VNW p18 W=475.00n L=180.00n
MM0 net4 A2 VDD VNW p18 W=475.00n L=180.00n
MM1 Z net4 VDD VNW p18 W=790.00n L=180.00n
.ENDS AND2UHDV0P7
.SUBCKT AND2UHDV1 A1 A2 Z VDD VSS VNW VPW
MM4 Z net24 VSS VPW n18 W=720.00n L=180.00n
MM5 net8 A2 VSS VPW n18 W=0.475u L=180.00n
MM3 net24 A1 net8 VPW n18 W=0.475u L=180.00n
MM1 Z net24 VDD VNW p18 W=1.01u L=180.00n
MM0 net24 A2 VDD VNW p18 W=0.475u L=180.00n
MM2 net24 A1 VDD VNW p18 W=0.515u L=180.00n
.ENDS AND2UHDV1
.SUBCKT AND2UHDV2 A1 A2 Z VDD VSS VNW VPW
MM4 Z net24 VSS VPW n18 W=1.44u L=180.00n
MM5 net8 A2 VSS VPW n18 W=720.00n L=180.00n
MM3 net24 A1 net8 VPW n18 W=720.00n L=180.00n
MM1 Z net24 VDD VNW p18 W=2.02u L=180.00n
MM0 net24 A2 VDD VNW p18 W=0.97u L=180.00n
MM2 net24 A1 VDD VNW p18 W=0.97u L=180.00n
.ENDS AND2UHDV2
.SUBCKT AND2UHDV3 A1 A2 Z VDD VSS VNW VPW
MM4 Z net24 VSS VPW n18 W=2.16u L=180.00n
MM5 net8 A2 VSS VPW n18 W=720.00n L=180.00n
MM3 net24 A1 net8 VPW n18 W=720.00n L=180.00n
MM1 Z net24 VDD VNW p18 W=3.03u L=180.00n
MM0 net24 A2 VDD VNW p18 W=1.01u L=180.00n
MM2 net24 A1 VDD VNW p18 W=1.01u L=180.00n
.ENDS AND2UHDV3
.SUBCKT AND2UHDV4 A1 A2 Z VDD VSS VNW VPW
MM4 Z net24 VSS VPW n18 W=2.88u L=180.00n
MM5 net8 A2 VSS VPW n18 W=1.15u L=180.00n
MM3 net24 A1 net8 VPW n18 W=1.15u L=180.00n
MM1 Z net24 VDD VNW p18 W=4.04u L=180.00n
MM0 net24 A2 VDD VNW p18 W=1.52u L=180.00n
MM2 net24 A1 VDD VNW p18 W=1.52u L=180.00n
.ENDS AND2UHDV4
.SUBCKT AND2UHDV6 A1 A2 Z VDD VSS VNW VPW
MM4 Z net24 VSS VPW n18 W=4.32u L=180.00n
MM5 net8 A2 VSS VPW n18 W=1.44u L=180.00n
MM3 net24 A1 net8 VPW n18 W=1.44u L=180.00n
MM1 Z net24 VDD VNW p18 W=6.06u L=180.00n
MM0 net24 A2 VDD VNW p18 W=2.02u L=180.00n
MM2 net24 A1 VDD VNW p18 W=2.02u L=180.00n
.ENDS AND2UHDV6
.SUBCKT AND2UHDV8 A1 A2 Z VDD VSS VNW VPW
MM4 Z net24 VSS VPW n18 W=5.76u L=180.00n
MM5 net8 A2 VSS VPW n18 W=2.16u L=180.00n
MM3 net24 A1 net8 VPW n18 W=2.16u L=180.00n
MM1 Z net24 VDD VNW p18 W=8.08u L=180.00n
MM0 net24 A2 VDD VNW p18 W=3.03u L=180.00n
MM2 net24 A1 VDD VNW p18 W=3.03u L=180.00n
.ENDS AND2UHDV8
.SUBCKT AND3UHDV0P7 A1 A2 A3 Z VDD VSS VNW VPW
MM7 net5 A3 VSS VPW n18 W=0.475u L=180.00n
MM4 Z net33 VSS VPW n18 W=0.605u L=180.00n
MM5 net13 A2 net5 VPW n18 W=0.475u L=180.00n
MM3 net33 A1 net13 VPW n18 W=0.475u L=180.00n
MM6 net33 A3 VDD VNW p18 W=0.51u L=180.00n
MM1 Z net33 VDD VNW p18 W=0.8u L=180.00n
MM0 net33 A2 VDD VNW p18 W=0.51u L=180.00n
MM2 net33 A1 VDD VNW p18 W=0.51u L=180.00n
.ENDS AND3UHDV0P7
.SUBCKT AND3UHDV1 A1 A2 A3 Z VDD VSS VNW VPW
MM2 net5 A1 VDD VNW p18 W=0.575u L=180.00n
MM0 net5 A2 VDD VNW p18 W=0.575u L=180.00n
MM1 Z net5 VDD VNW p18 W=1.01u L=180.00n
MM6 net5 A3 VDD VNW p18 W=0.575u L=180.00n
MM3 net5 A1 net25 VPW n18 W=0.475u L=180.00n
MM5 net25 A2 net33 VPW n18 W=0.475u L=180.00n
MM4 Z net5 VSS VPW n18 W=720.00n L=180.00n
MM7 net33 A3 VSS VPW n18 W=0.475u L=180.00n
.ENDS AND3UHDV1
.SUBCKT AND3UHDV2 A1 A2 A3 Z VDD VSS VNW VPW
MM7 net5 A3 VSS VPW n18 W=720.00n L=180.00n
MM4 Z net33 VSS VPW n18 W=1.44u L=180.00n
MM5 net13 A2 net5 VPW n18 W=720.00n L=180.00n
MM3 net33 A1 net13 VPW n18 W=720.00n L=180.00n
MM6 net33 A3 VDD VNW p18 W=0.97u L=180.00n
MM1 Z net33 VDD VNW p18 W=2.02u L=180.00n
MM0 net33 A2 VDD VNW p18 W=0.97u L=180.00n
MM2 net33 A1 VDD VNW p18 W=0.97u L=180.00n
.ENDS AND3UHDV2
.SUBCKT AND3UHDV3 A1 A2 A3 Z VDD VSS VNW VPW
MM7 net5 A3 VSS VPW n18 W=720.00n L=180.00n
MM4 Z net33 VSS VPW n18 W=2.16u L=180.00n
MM5 net13 A2 net5 VPW n18 W=720.00n L=180.00n
MM3 net33 A1 net13 VPW n18 W=720.00n L=180.00n
MM6 net33 A3 VDD VNW p18 W=1.01u L=180.00n
MM1 Z net33 VDD VNW p18 W=3.03u L=180.00n
MM0 net33 A2 VDD VNW p18 W=1.01u L=180.00n
MM2 net33 A1 VDD VNW p18 W=1.01u L=180.00n
.ENDS AND3UHDV3
.SUBCKT AND3UHDV4 A1 A2 A3 Z VDD VSS VNW VPW
MM7 net5 A3 VSS VPW n18 W=1.01u L=180.00n
MM4 Z net33 VSS VPW n18 W=2.88u L=180.00n
MM5 net13 A2 net5 VPW n18 W=1.01u L=180.00n
MM3 net33 A1 net13 VPW n18 W=1.01u L=180.00n
MM6 net33 A3 VDD VNW p18 W=1.51u L=180.00n
MM1 Z net33 VDD VNW p18 W=4.04u L=180.00n
MM0 net33 A2 VDD VNW p18 W=1.51u L=180.00n
MM2 net33 A1 VDD VNW p18 W=1.51u L=180.00n
.ENDS AND3UHDV4
.SUBCKT AND4UHDV0P7 A1 A2 A3 A4 Z VDD VSS VNW VPW
MM8 net14 A4 VDD VNW p18 W=0.51u L=180.00n
MM2 net14 A1 VDD VNW p18 W=0.51u L=180.00n
MM0 net14 A2 VDD VNW p18 W=0.51u L=180.00n
MM1 Z net14 VDD VNW p18 W=0.8u L=180.00n
MM6 net14 A3 VDD VNW p18 W=0.51u L=180.00n
MM9 net30 A4 VSS VPW n18 W=0.475u L=180.00n
MM3 net14 A1 net38 VPW n18 W=0.475u L=180.00n
MM5 net38 A2 net42 VPW n18 W=0.475u L=180.00n
MM4 Z net14 VSS VPW n18 W=0.605u L=180.00n
MM7 net42 A3 net30 VPW n18 W=0.475u L=180.00n
.ENDS AND4UHDV0P7
.SUBCKT AND4UHDV1 A1 A2 A3 A4 Z VDD VSS VNW VPW
MM7 net6 A3 net18 VPW n18 W=0.475u L=180.00n
MM5 net10 A2 net6 VPW n18 W=0.475u L=180.00n
MM3 net34 A1 net10 VPW n18 W=0.475u L=180.00n
MM9 net18 A4 VSS VPW n18 W=0.475u L=180.00n
MM4 Z net34 VSS VPW n18 W=720.00n L=180.00n
MM6 net34 A3 VDD VNW p18 W=0.575u L=180.00n
MM0 net34 A2 VDD VNW p18 W=0.575u L=180.00n
MM2 net34 A1 VDD VNW p18 W=0.575u L=180.00n
MM8 net34 A4 VDD VNW p18 W=0.575u L=180.00n
MM1 Z net34 VDD VNW p18 W=1.01u L=180.00n
.ENDS AND4UHDV1
.SUBCKT AND4UHDV2 A1 A2 A3 A4 Z VDD VSS VNW VPW
MM7 net6 A3 net18 VPW n18 W=0.675u L=180.00n
MM5 net10 A2 net6 VPW n18 W=0.675u L=180.00n
MM3 net34 A1 net10 VPW n18 W=0.675u L=180.00n
MM9 net18 A4 VSS VPW n18 W=0.675u L=180.00n
MM4 Z net34 VSS VPW n18 W=1.44u L=180.00n
MM6 net34 A3 VDD VNW p18 W=0.89u L=180.00n
MM0 net34 A2 VDD VNW p18 W=0.89u L=180.00n
MM2 net34 A1 VDD VNW p18 W=0.89u L=180.00n
MM8 net34 A4 VDD VNW p18 W=0.89u L=180.00n
MM1 Z net34 VDD VNW p18 W=2.02u L=180.00n
.ENDS AND4UHDV2
.SUBCKT AND4UHDV3 A1 A2 A3 A4 Z VDD VSS VNW VPW
MM7 net6 A3 net18 VPW n18 W=0.675u L=180.00n
MM5 net10 A2 net6 VPW n18 W=0.675u L=180.00n
MM3 net34 A1 net10 VPW n18 W=0.675u L=180.00n
MM9 net18 A4 VSS VPW n18 W=0.675u L=180.00n
MM4 Z net34 VSS VPW n18 W=2.16u L=180.00n
MM6 net34 A3 VDD VNW p18 W=0.89u L=180.00n
MM0 net34 A2 VDD VNW p18 W=0.89u L=180.00n
MM2 net34 A1 VDD VNW p18 W=0.89u L=180.00n
MM8 net34 A4 VDD VNW p18 W=0.89u L=180.00n
MM1 Z net34 VDD VNW p18 W=3.03u L=180.00n
.ENDS AND4UHDV3
.SUBCKT AO112UHDV0P4 A1 A2 B C Z VDD VSS VNW VPW
MM7 net17 B VDD VNW p18 W=0.495u L=180.00n
MM6 net21 C net17 VNW p18 W=0.495u L=180.00n
MM2 net18 A1 net21 VNW p18 W=0.495u L=180.00n
MM0 net18 A2 net21 VNW p18 W=0.495u L=180.00n
MM1 Z net18 VDD VNW p18 W=0.495u L=180.00n
MM9 net18 B VSS VPW n18 W=0.275u L=180.00n
MM8 net18 C VSS VPW n18 W=0.275u L=180.00n
MM5 net38 A2 VSS VPW n18 W=0.28u L=180.00n
MM3 net18 A1 net38 VPW n18 W=0.28u L=180.00n
MM4 Z net18 VSS VPW n18 W=0.28u L=180.00n
.ENDS AO112UHDV0P4
.SUBCKT AO112UHDV0P7 A1 A2 B C Z VDD VSS VNW VPW
MM3 net30 A1 net10 VPW n18 W=0.42u L=180.00n
MM5 net10 A2 VSS VPW n18 W=0.42u L=180.00n
MM8 net30 C VSS VPW n18 W=0.42u L=180.00n
MM9 net30 B VSS VPW n18 W=0.42u L=180.00n
MM4 Z net30 VSS VPW n18 W=560.00n L=180.00n
MM0 net30 A2 net33 VNW p18 W=0.495u L=180.00n
MM2 net30 A1 net33 VNW p18 W=0.495u L=180.00n
MM6 net33 C net37 VNW p18 W=0.495u L=180.00n
MM7 net37 B VDD VNW p18 W=0.495u L=180.00n
MM1 Z net30 VDD VNW p18 W=790.0n L=180.00n
.ENDS AO112UHDV0P7
.SUBCKT AO112UHDV1 A1 A2 B C Z VDD VSS VNW VPW
MM3 net30 A1 net10 VPW n18 W=0.42u L=180.00n
MM5 net10 A2 VSS VPW n18 W=0.42u L=180.00n
MM8 net30 C VSS VPW n18 W=0.42u L=180.00n
MM9 net30 B VSS VPW n18 W=0.42u L=180.00n
MM4 Z net30 VSS VPW n18 W=0.695u L=180.00n
MM0 net30 A2 net33 VNW p18 W=0.495u L=180.00n
MM2 net30 A1 net33 VNW p18 W=0.495u L=180.00n
MM6 net33 C net37 VNW p18 W=0.56u L=180.00n
MM7 net37 B VDD VNW p18 W=0.56u L=180.00n
MM1 Z net30 VDD VNW p18 W=0.915u L=180.00n
.ENDS AO112UHDV1
.SUBCKT AO112UHDV2 A1 A2 B C Z VDD VSS VNW VPW
MM3 net30 A1 net10 VPW n18 W=0.62u L=180.00n
MM5 net10 A2 VSS VPW n18 W=0.62u L=180.00n
MM8 net30 C VSS VPW n18 W=0.62u L=180.00n
MM9 net30 B VSS VPW n18 W=0.62u L=180.00n
MM4 Z net30 VSS VPW n18 W=1.44u L=180.00n
MM0 net30 A2 net33 VNW p18 W=0.97u L=180.00n
MM2 net30 A1 net33 VNW p18 W=0.97u L=180.00n
MM6 net33 C net37 VNW p18 W=0.97u L=180.00n
MM7 net37 B VDD VNW p18 W=0.97u L=180.00n
MM1 Z net30 VDD VNW p18 W=2.02u L=180.00n
.ENDS AO112UHDV2
.SUBCKT AO112UHDV3 A1 A2 B C Z VDD VSS VNW VPW
MM3 net30 A1 net10 VPW n18 W=720.00n L=180.00n
MM5 net10 A2 VSS VPW n18 W=720.00n L=180.00n
MM8 net30 C VSS VPW n18 W=720.00n L=180.00n
MM9 net30 B VSS VPW n18 W=720.00n L=180.00n
MM4 Z net30 VSS VPW n18 W=2.16u L=180.00n
MM0 net30 A2 net33 VNW p18 W=1.01u L=180.00n
MM2 net30 A1 net33 VNW p18 W=1.01u L=180.00n
MM6 net33 C net37 VNW p18 W=1.01u L=180.00n
MM7 net37 B VDD VNW p18 W=1.01u L=180.00n
MM1 Z net30 VDD VNW p18 W=3.03u L=180.00n
.ENDS AO112UHDV3
.SUBCKT AO12UHDV0P4 A1 A2 B Z VDD VSS VNW VPW
MM4 Z net33 VSS VPW n18 W=430.00n L=180.00n
MM3 net33 A1 net13 VPW n18 W=430.00n L=180.00n
MM5 net13 A2 VSS VPW n18 W=430.00n L=180.00n
MM8 net33 B VSS VPW n18 W=430.00n L=180.00n
MM1 Z net33 VDD VNW p18 W=490.0n L=180.00n
MM0 net33 A2 net36 VNW p18 W=490.0n L=180.00n
MM2 net33 A1 net36 VNW p18 W=490.0n L=180.00n
MM7 net36 B VDD VNW p18 W=490.0n L=180.00n
.ENDS AO12UHDV0P4
.SUBCKT AO12UHDV0P7 A1 A2 B Z VDD VSS VNW VPW
MM2 net5 A1 net8 VNW p18 W=500.0n L=180.00n
MM0 net5 A2 net8 VNW p18 W=500.0n L=180.00n
MM7 net8 B VDD VNW p18 W=500.0n L=180.00n
MM1 Z net5 VDD VNW p18 W=790.0n L=180.00n
MM8 net5 B VSS VPW n18 W=430.00n L=180.00n
MM5 net25 A2 VSS VPW n18 W=430.00n L=180.00n
MM3 net5 A1 net25 VPW n18 W=430.00n L=180.00n
MM4 Z net5 VSS VPW n18 W=560.00n L=180.00n
.ENDS AO12UHDV0P7
.SUBCKT AO12UHDV1 A1 A2 B Z VDD VSS VNW VPW
MM2 net5 A1 net8 VNW p18 W=580.0n L=180.00n
MM0 net5 A2 net8 VNW p18 W=580.0n L=180.00n
MM7 net8 B VDD VNW p18 W=580.0n L=180.00n
MM1 Z net5 VDD VNW p18 W=0.92u L=180.00n
MM8 net5 B VSS VPW n18 W=430.00n L=180.00n
MM5 net25 A2 VSS VPW n18 W=430.00n L=180.00n
MM3 net5 A1 net25 VPW n18 W=430.00n L=180.00n
MM4 Z net5 VSS VPW n18 W=720.00n L=180.00n
.ENDS AO12UHDV1
.SUBCKT AO12UHDV2 A1 A2 B Z VDD VSS VNW VPW
MM2 net5 A1 net8 VNW p18 W=950.0n L=180.00n
MM0 net5 A2 net8 VNW p18 W=950.0n L=180.00n
MM7 net8 B VDD VNW p18 W=950.0n L=180.00n
MM1 Z net5 VDD VNW p18 W=2.02u L=180.00n
MM8 net5 B VSS VPW n18 W=630.00n L=180.00n
MM5 net25 A2 VSS VPW n18 W=630.00n L=180.00n
MM3 net5 A1 net25 VPW n18 W=630.00n L=180.00n
MM4 Z net5 VSS VPW n18 W=1.44u L=180.00n
.ENDS AO12UHDV2
.SUBCKT AO12UHDV3 A1 A2 B Z VDD VSS VNW VPW
MM2 net5 A1 net8 VNW p18 W=1.01u L=180.00n
MM0 net5 A2 net8 VNW p18 W=1.01u L=180.00n
MM7 net8 B VDD VNW p18 W=1.01u L=180.00n
MM1 Z net5 VDD VNW p18 W=3.03u L=180.00n
MM8 net5 B VSS VPW n18 W=720.00n L=180.00n
MM5 net25 A2 VSS VPW n18 W=720.00n L=180.00n
MM3 net5 A1 net25 VPW n18 W=720.00n L=180.00n
MM4 Z net5 VSS VPW n18 W=2.16u L=180.00n
.ENDS AO12UHDV3
.SUBCKT AO12UHDV4 A1 A2 B Z VDD VSS VNW VPW
MM2 net5 A1 net8 VNW p18 W=1.35u L=180.00n
MM0 net5 A2 net8 VNW p18 W=1.35u L=180.00n
MM7 net8 B VDD VNW p18 W=1.35u L=180.00n
MM1 Z net5 VDD VNW p18 W=4.04u L=180.00n
MM8 net5 B VSS VPW n18 W=1060.00n L=180.00n
MM5 net25 A2 VSS VPW n18 W=1060.00n L=180.00n
MM3 net5 A1 net25 VPW n18 W=1060.00n L=180.00n
MM4 Z net5 VSS VPW n18 W=2.88u L=180.00n
.ENDS AO12UHDV4
.SUBCKT AO21BUHDV0P4 A1 A2 B Z VDD VSS VNW VPW
MM3 Z B net9 VPW n18 W=0.28u L=180.00n
MM1 net9 net044 VSS VPW n18 W=0.28u L=180.00n
MM6 net13 A2 VSS VPW n18 W=0.28u L=180.00n
MM9 net044 A1 net13 VPW n18 W=0.28u L=180.00n
MM5 Z net044 VDD VNW p18 W=0.425u L=180.00n
MM4 Z B VDD VNW p18 W=0.425u L=180.00n
MM0 net044 A1 VDD VNW p18 W=0.425u L=180.00n
MM2 net044 A2 VDD VNW p18 W=0.425u L=180.00n
.ENDS AO21BUHDV0P4
.SUBCKT AO21BUHDV0P7 A1 A2 B Z VDD VSS VNW VPW
MM5 Z net16 VDD VNW p18 W=790.0n L=180.00n
MM4 Z B VDD VNW p18 W=790.0n L=180.00n
MM0 net16 A1 VDD VNW p18 W=500.0n L=180.00n
MM2 net16 A2 VDD VNW p18 W=500.0n L=180.00n
MM3 Z B net40 VPW n18 W=560.00n L=180.00n
MM1 net40 net16 VSS VPW n18 W=560.00n L=180.00n
MM6 net36 A2 VSS VPW n18 W=430.00n L=180.00n
MM9 net16 A1 net36 VPW n18 W=430.00n L=180.00n
.ENDS AO21BUHDV0P7
.SUBCKT AO21BUHDV1 A1 A2 B Z VDD VSS VNW VPW
MM5 Z net16 VDD VNW p18 W=1.01u L=180.00n
MM4 Z B VDD VNW p18 W=1.01u L=180.00n
MM0 net16 A1 VDD VNW p18 W=580.0n L=180.00n
MM2 net16 A2 VDD VNW p18 W=580.0n L=180.00n
MM3 Z B net40 VPW n18 W=720.00n L=180.00n
MM1 net40 net16 VSS VPW n18 W=720.00n L=180.00n
MM6 net36 A2 VSS VPW n18 W=430.00n L=180.00n
MM9 net16 A1 net36 VPW n18 W=430.00n L=180.00n
.ENDS AO21BUHDV1
.SUBCKT AO21BUHDV2 A1 A2 B Z VDD VSS VNW VPW
MM5 Z net16 VDD VNW p18 W=2.02u L=180.00n
MM4 Z B VDD VNW p18 W=1.9u L=180.00n
MM0 net16 A1 VDD VNW p18 W=950.0n L=180.00n
MM2 net16 A2 VDD VNW p18 W=950.0n L=180.00n
MM3 Z B net40 VPW n18 W=1.44u L=180.00n
MM1 net40 net16 VSS VPW n18 W=1.44u L=180.00n
MM6 net36 A2 VSS VPW n18 W=630.00n L=180.00n
MM9 net16 A1 net36 VPW n18 W=630.00n L=180.00n
.ENDS AO21BUHDV2
.SUBCKT AO21BUHDV3 A1 A2 B Z VDD VSS VNW VPW
MM5 Z net16 VDD VNW p18 W=2.97u L=180.00n
MM4 Z B VDD VNW p18 W=2.91u L=180.00n
MM0 net16 A1 VDD VNW p18 W=1.01u L=180.00n
MM2 net16 A2 VDD VNW p18 W=1.01u L=180.00n
MM3 Z B net40 VPW n18 W=2.16u L=180.00n
MM1 net40 net16 VSS VPW n18 W=2.16u L=180.00n
MM6 net36 A2 VSS VPW n18 W=720.00n L=180.00n
MM9 net16 A1 net36 VPW n18 W=720.00n L=180.00n
.ENDS AO21BUHDV3
.SUBCKT AO221UHDV0P4 A1 A2 B1 B2 C Z VDD VSS VNW VPW
MM11 net7 B2 VSS VPW n18 W=0.28u L=180.00n
MM3 net11 A1 net15 VPW n18 W=0.28u L=180.00n
MM5 net15 A2 VSS VPW n18 W=0.28u L=180.00n
MM8 net11 B1 net7 VPW n18 W=0.28u L=180.00n
MM9 net11 C VSS VPW n18 W=0.28u L=180.00n
MM4 Z net11 VSS VPW n18 W=0.28u L=180.00n
MM10 net35 B1 net38 VNW p18 W=0.495u L=180.00n
MM0 net38 A2 VDD VNW p18 W=0.5u L=180.00n
MM2 net38 A1 VDD VNW p18 W=0.5u L=180.00n
MM7 net11 C net35 VNW p18 W=0.485u L=180.00n
MM1 Z net11 VDD VNW p18 W=0.5u L=180.00n
MM6 net35 B2 net38 VNW p18 W=0.495u L=180.00n
.ENDS AO221UHDV0P4
.SUBCKT AO221UHDV0P7 A1 A2 B1 B2 C Z VDD VSS VNW VPW
MM1 Z net47 VDD VNW p18 W=790.0n L=180.00n
MM2 net26 A1 VDD VNW p18 W=500.0n L=180.00n
MM0 net26 A2 VDD VNW p18 W=500.0n L=180.00n
MM6 net23 B2 net26 VNW p18 W=0.495u L=180.00n
MM10 net23 B1 net26 VNW p18 W=0.495u L=180.00n
MM7 net47 C net23 VNW p18 W=0.485u L=180.00n
MM4 Z net47 VSS VPW n18 W=0.58u L=180.00n
MM9 net47 C VSS VPW n18 W=0.47u L=180.00n
MM8 net47 B1 net0134 VPW n18 W=0.47u L=180.00n
MM5 net43 A2 VSS VPW n18 W=0.47u L=180.00n
MM3 net47 A1 net43 VPW n18 W=0.47u L=180.00n
MM11 net0134 B2 VSS VPW n18 W=0.47u L=180.00n
.ENDS AO221UHDV0P7
.SUBCKT AO221UHDV1 A1 A2 B1 B2 C Z VDD VSS VNW VPW
MM1 Z net47 VDD VNW p18 W=1.01u L=180.00n
MM2 net26 A1 VDD VNW p18 W=580.0n L=180.00n
MM0 net26 A2 VDD VNW p18 W=580.0n L=180.00n
MM6 net23 B2 net26 VNW p18 W=580.0n L=180.00n
MM10 net23 B1 net26 VNW p18 W=580.0n L=180.00n
MM7 net47 C net23 VNW p18 W=580.0n L=180.00n
MM4 Z net47 VSS VPW n18 W=720.00n L=180.00n
MM9 net47 C VSS VPW n18 W=0.47u L=180.00n
MM8 net47 B1 net080 VPW n18 W=0.47u L=180.00n
MM5 net43 A2 VSS VPW n18 W=0.47u L=180.00n
MM3 net47 A1 net43 VPW n18 W=0.47u L=180.00n
MM11 net080 B2 VSS VPW n18 W=0.47u L=180.00n
.ENDS AO221UHDV1
.SUBCKT AO221UHDV2 A1 A2 B1 B2 C Z VDD VSS VNW VPW
MM1 Z net47 VDD VNW p18 W=2.02u L=180.00n
MM2 net26 A1 VDD VNW p18 W=0.97u L=180.00n
MM0 net26 A2 VDD VNW p18 W=0.97u L=180.00n
MM6 net23 B2 net26 VNW p18 W=0.97u L=180.00n
MM10 net23 B1 net26 VNW p18 W=0.97u L=180.00n
MM7 net47 C net23 VNW p18 W=0.97u L=180.00n
MM4 Z net47 VSS VPW n18 W=1.44u L=180.00n
MM9 net47 C VSS VPW n18 W=0.62u L=180.00n
MM8 net47 B1 net0134 VPW n18 W=0.62u L=180.00n
MM5 net43 A2 VSS VPW n18 W=0.62u L=180.00n
MM3 net47 A1 net43 VPW n18 W=0.62u L=180.00n
MM11 net0134 B2 VSS VPW n18 W=0.62u L=180.00n
.ENDS AO221UHDV2
.SUBCKT AO221UHDV3 A1 A2 B1 B2 C Z VDD VSS VNW VPW
MM1 Z net47 VDD VNW p18 W=3.03u L=180.00n
MM2 net26 A1 VDD VNW p18 W=1.01u L=180.00n
MM0 net26 A2 VDD VNW p18 W=1.01u L=180.00n
MM6 net23 B2 net26 VNW p18 W=1.01u L=180.00n
MM10 net23 B1 net26 VNW p18 W=1.01u L=180.00n
MM7 net47 C net23 VNW p18 W=1.01u L=180.00n
MM4 Z net47 VSS VPW n18 W=2.16u L=180.00n
MM9 net47 C VSS VPW n18 W=720.00n L=180.00n
MM8 net47 B1 net080 VPW n18 W=720.00n L=180.00n
MM5 net43 A2 VSS VPW n18 W=720.00n L=180.00n
MM3 net47 A1 net43 VPW n18 W=720.00n L=180.00n
MM11 net080 B2 VSS VPW n18 W=720.00n L=180.00n
.ENDS AO221UHDV3
.SUBCKT AO222UHDV0P4 A1 A2 B1 B2 C1 C2 Z VDD VSS VNW VPW
MM16 net10 A1 net081 VPW n18 W=0.28u L=180.00n
MM15 net081 A2 VSS VPW n18 W=0.28u L=180.00n
MM4 Z net10 VSS VPW n18 W=0.28u L=180.00n
MM3 net10 B1 net14 VPW n18 W=0.28u L=180.00n
MM5 net14 B2 VSS VPW n18 W=0.28u L=180.00n
MM8 net10 C1 net085 VPW n18 W=0.28u L=180.00n
MM12 net085 C2 VSS VPW n18 W=0.28u L=180.00n
MM11 net0112 B1 net0116 VNW p18 W=490.0n L=180.00n
MM1 Z net10 VDD VNW p18 W=490.0n L=180.00n
MM6 net0116 A2 VDD VNW p18 W=490.0n L=180.00n
MM0 net10 C2 net0112 VNW p18 W=490.0n L=180.00n
MM2 net10 C1 net0112 VNW p18 W=490.0n L=180.00n
MM7 net0116 A1 VDD VNW p18 W=490.0n L=180.00n
MM10 net0112 B2 net0116 VNW p18 W=490.0n L=180.00n
.ENDS AO222UHDV0P4
.SUBCKT AO222UHDV0P7 A1 A2 B1 B2 C1 C2 Z VDD VSS VNW VPW
MM1 Z net60 VDD VNW p18 W=790.0n L=180.00n
MM6 net27 A2 VDD VNW p18 W=500.0n L=180.00n
MM7 net27 A1 VDD VNW p18 W=500.0n L=180.00n
MM10 net31 B2 net27 VNW p18 W=500.0n L=180.00n
MM11 net31 B1 net27 VNW p18 W=500.0n L=180.00n
MM2 net60 C1 net31 VNW p18 W=500.0n L=180.00n
MM0 net60 C2 net31 VNW p18 W=500.0n L=180.00n
MM5 net36 B2 VSS VPW n18 W=430.00n L=180.00n
MM3 net60 B1 net36 VPW n18 W=430.00n L=180.00n
MM4 Z net60 VSS VPW n18 W=560.00n L=180.00n
MM8 net60 C1 net52 VPW n18 W=430.00n L=180.00n
MM12 net52 C2 VSS VPW n18 W=430.00n L=180.00n
MM15 net56 A2 VSS VPW n18 W=430.00n L=180.00n
MM16 net60 A1 net56 VPW n18 W=430.00n L=180.00n
.ENDS AO222UHDV0P7
.SUBCKT AO222UHDV1 A1 A2 B1 B2 C1 C2 Z VDD VSS VNW VPW
MM1 Z net60 VDD VNW p18 W=0.98u L=180.00n
MM6 net27 A2 VDD VNW p18 W=580.0n L=180.00n
MM7 net27 A1 VDD VNW p18 W=580.0n L=180.00n
MM10 net31 B2 net27 VNW p18 W=580.0n L=180.00n
MM11 net31 B1 net27 VNW p18 W=580.0n L=180.00n
MM2 net60 C1 net31 VNW p18 W=580.0n L=180.00n
MM0 net60 C2 net31 VNW p18 W=580.0n L=180.00n
MM5 net36 B2 VSS VPW n18 W=430.00n L=180.00n
MM3 net60 B1 net36 VPW n18 W=430.00n L=180.00n
MM4 Z net60 VSS VPW n18 W=720.00n L=180.00n
MM8 net60 C1 net52 VPW n18 W=430.00n L=180.00n
MM12 net52 C2 VSS VPW n18 W=430.00n L=180.00n
MM15 net56 A2 VSS VPW n18 W=430.00n L=180.00n
MM16 net60 A1 net56 VPW n18 W=430.00n L=180.00n
.ENDS AO222UHDV1
.SUBCKT AO222UHDV2 A1 A2 B1 B2 C1 C2 Z VDD VSS VNW VPW
MM1 Z net60 VDD VNW p18 W=2.02u L=180.00n
MM6 net27 A2 VDD VNW p18 W=950.0n L=180.00n
MM7 net27 A1 VDD VNW p18 W=950.0n L=180.00n
MM10 net31 B2 net27 VNW p18 W=950.0n L=180.00n
MM11 net31 B1 net27 VNW p18 W=950.0n L=180.00n
MM2 net60 C1 net31 VNW p18 W=950.0n L=180.00n
MM0 net60 C2 net31 VNW p18 W=950.0n L=180.00n
MM5 net36 B2 VSS VPW n18 W=690.00n L=180.00n
MM3 net60 B1 net36 VPW n18 W=690.00n L=180.00n
MM4 Z net60 VSS VPW n18 W=1.44u L=180.00n
MM8 net60 C1 net52 VPW n18 W=690.00n L=180.00n
MM12 net52 C2 VSS VPW n18 W=690.00n L=180.00n
MM15 net56 A2 VSS VPW n18 W=690.00n L=180.00n
MM16 net60 A1 net56 VPW n18 W=690.00n L=180.00n
.ENDS AO222UHDV2
.SUBCKT AO222UHDV3 A1 A2 B1 B2 C1 C2 Z VDD VSS VNW VPW
MM1 Z net60 VDD VNW p18 W=3.03u L=180.00n
MM6 net27 A2 VDD VNW p18 W=1.01u L=180.00n
MM7 net27 A1 VDD VNW p18 W=1.01u L=180.00n
MM10 net31 B2 net27 VNW p18 W=1.01u L=180.00n
MM11 net31 B1 net27 VNW p18 W=1.01u L=180.00n
MM2 net60 C1 net31 VNW p18 W=1.01u L=180.00n
MM0 net60 C2 net31 VNW p18 W=1.01u L=180.00n
MM5 net36 B2 VSS VPW n18 W=720.00n L=180.00n
MM3 net60 B1 net36 VPW n18 W=720.00n L=180.00n
MM4 Z net60 VSS VPW n18 W=2.16u L=180.00n
MM8 net60 C1 net52 VPW n18 W=720.00n L=180.00n
MM12 net52 C2 VSS VPW n18 W=720.00n L=180.00n
MM15 net56 A2 VSS VPW n18 W=720.00n L=180.00n
MM16 net60 A1 net56 VPW n18 W=720.00n L=180.00n
.ENDS AO222UHDV3
.SUBCKT AO22UHDV0P4 A1 A2 B1 B2 Z VDD VSS VNW VPW
MM1 Z net42 VDD VNW p18 W=490.0n L=180.00n
MM6 net25 A2 VDD VNW p18 W=490.0n L=180.00n
MM7 net25 A1 VDD VNW p18 W=490.0n L=180.00n
MM10 net42 B2 net25 VNW p18 W=490.0n L=180.00n
MM11 net42 B1 net25 VNW p18 W=490.0n L=180.00n
MM5 net30 B2 VSS VPW n18 W=0.28u L=180.00n
MM3 net42 B1 net30 VPW n18 W=0.28u L=180.00n
MM4 Z net42 VSS VPW n18 W=0.28u L=180.00n
MM15 net38 A2 VSS VPW n18 W=0.28u L=180.00n
MM16 net42 A1 net38 VPW n18 W=0.28u L=180.00n
.ENDS AO22UHDV0P4
.SUBCKT AO22UHDV0P7 A1 A2 B1 B2 Z VDD VSS VNW VPW
MM16 net6 A1 net10 VPW n18 W=430.00n L=180.00n
MM15 net10 A2 VSS VPW n18 W=430.00n L=180.00n
MM3 net6 B1 net18 VPW n18 W=430.00n L=180.00n
MM5 net18 B2 VSS VPW n18 W=430.00n L=180.00n
MM4 Z net6 VSS VPW n18 W=560.00n L=180.00n
MM11 net6 B1 net29 VNW p18 W=500.0n L=180.00n
MM10 net6 B2 net29 VNW p18 W=500.0n L=180.00n
MM7 net29 A1 VDD VNW p18 W=500.0n L=180.00n
MM6 net29 A2 VDD VNW p18 W=500.0n L=180.00n
MM1 Z net6 VDD VNW p18 W=790.0n L=180.00n
.ENDS AO22UHDV0P7
.SUBCKT AO22UHDV1 A1 A2 B1 B2 Z VDD VSS VNW VPW
MM16 net6 A1 net10 VPW n18 W=430.00n L=180.00n
MM15 net10 A2 VSS VPW n18 W=430.00n L=180.00n
MM3 net6 B1 net18 VPW n18 W=430.00n L=180.00n
MM5 net18 B2 VSS VPW n18 W=430.00n L=180.00n
MM4 Z net6 VSS VPW n18 W=720.00n L=180.00n
MM11 net6 B1 net29 VNW p18 W=580.0n L=180.00n
MM10 net6 B2 net29 VNW p18 W=580.0n L=180.00n
MM7 net29 A1 VDD VNW p18 W=580.0n L=180.00n
MM6 net29 A2 VDD VNW p18 W=580.0n L=180.00n
MM1 Z net6 VDD VNW p18 W=1.01u L=180.00n
.ENDS AO22UHDV1
.SUBCKT AO22UHDV2 A1 A2 B1 B2 Z VDD VSS VNW VPW
MM16 net6 A1 net10 VPW n18 W=630.00n L=180.00n
MM15 net10 A2 VSS VPW n18 W=630.00n L=180.00n
MM3 net6 B1 net18 VPW n18 W=630.00n L=180.00n
MM5 net18 B2 VSS VPW n18 W=630.00n L=180.00n
MM4 Z net6 VSS VPW n18 W=1.44u L=180.00n
MM11 net6 B1 net29 VNW p18 W=950.0n L=180.00n
MM10 net6 B2 net29 VNW p18 W=950.0n L=180.00n
MM7 net29 A1 VDD VNW p18 W=950.0n L=180.00n
MM6 net29 A2 VDD VNW p18 W=950.0n L=180.00n
MM1 Z net6 VDD VNW p18 W=2.02u L=180.00n
.ENDS AO22UHDV2
.SUBCKT AO22UHDV3 A1 A2 B1 B2 Z VDD VSS VNW VPW
MM16 net6 A1 net10 VPW n18 W=720.00n L=180.00n
MM15 net10 A2 VSS VPW n18 W=720.00n L=180.00n
MM3 net6 B1 net18 VPW n18 W=720.00n L=180.00n
MM5 net18 B2 VSS VPW n18 W=720.00n L=180.00n
MM4 Z net6 VSS VPW n18 W=2.16u L=180.00n
MM11 net6 B1 net29 VNW p18 W=1.01u L=180.00n
MM10 net6 B2 net29 VNW p18 W=1.01u L=180.00n
MM7 net29 A1 VDD VNW p18 W=1.01u L=180.00n
MM6 net29 A2 VDD VNW p18 W=1.01u L=180.00n
MM1 Z net6 VDD VNW p18 W=3.03u L=180.00n
.ENDS AO22UHDV3
.SUBCKT AO22UHDV4 A1 A2 B1 B2 Z VDD VSS VNW VPW
MM16 net6 A1 net10 VPW n18 W=1060.00n L=180.00n
MM15 net10 A2 VSS VPW n18 W=1060.00n L=180.00n
MM3 net6 B1 net18 VPW n18 W=1060.00n L=180.00n
MM5 net18 B2 VSS VPW n18 W=1060.00n L=180.00n
MM4 Z net6 VSS VPW n18 W=2.88u L=180.00n
MM11 net6 B1 net29 VNW p18 W=1.32u L=180.00n
MM10 net6 B2 net29 VNW p18 W=1.48u L=180.00n
MM7 net29 A1 VDD VNW p18 W=1.32u L=180.00n
MM6 net29 A2 VDD VNW p18 W=1.48u L=180.00n
MM1 Z net6 VDD VNW p18 W=4.04u L=180.00n
.ENDS AO22UHDV4
.SUBCKT AO22UHDV6 A1 A2 B1 B2 Z VDD VSS VNW VPW
MM16 net6 A1 net10 VPW n18 W=1.44u L=180.00n
MM15 net10 A2 VSS VPW n18 W=1.44u L=180.00n
MM3 net6 B1 net18 VPW n18 W=1.44u L=180.00n
MM5 net18 B2 VSS VPW n18 W=1.44u L=180.00n
MM4 Z net6 VSS VPW n18 W=4.32u L=180.00n
MM11 net6 B1 net29 VNW p18 W=2.02u L=180.00n
MM10 net6 B2 net29 VNW p18 W=2.02u L=180.00n
MM7 net29 A1 VDD VNW p18 W=2.02u L=180.00n
MM6 net29 A2 VDD VNW p18 W=2.02u L=180.00n
MM1 Z net6 VDD VNW p18 W=6.06u L=180.00n
.ENDS AO22UHDV6
.SUBCKT AO31UHDV0P4 A1 A2 A3 B Z VDD VSS VNW VPW
MM6 net10 A3 VDD VNW p18 W=490.0n L=180.00n
MM7 net38 B net10 VNW p18 W=490.0n L=180.00n
MM2 net10 A1 VDD VNW p18 W=490.0n L=180.00n
MM0 net10 A2 VDD VNW p18 W=490.0n L=180.00n
MM1 Z net38 VDD VNW p18 W=490.0n L=180.00n
MM9 net26 A3 VSS VPW n18 W=0.28u L=180.00n
MM8 net38 B VSS VPW n18 W=0.28u L=180.00n
MM5 net34 A2 net26 VPW n18 W=0.28u L=180.00n
MM3 net38 A1 net34 VPW n18 W=0.28u L=180.00n
MM4 Z net38 VSS VPW n18 W=0.28u L=180.00n
.ENDS AO31UHDV0P4
.SUBCKT AO31UHDV0P7 A1 A2 A3 B Z VDD VSS VNW VPW
MM4 Z net10 VSS VPW n18 W=560.00n L=180.00n
MM3 net10 A1 net14 VPW n18 W=430.00n L=180.00n
MM5 net14 A2 net046 VPW n18 W=430.00n L=180.00n
MM8 net10 B VSS VPW n18 W=430.00n L=180.00n
MM9 net046 A3 VSS VPW n18 W=430.00n L=180.00n
MM1 Z net10 VDD VNW p18 W=790.0n L=180.00n
MM7 net10 B net38 VNW p18 W=500.0n L=180.00n
MM0 net38 A2 VDD VNW p18 W=500.0n L=180.00n
MM2 net38 A1 VDD VNW p18 W=500.0n L=180.00n
MM6 net38 A3 VDD VNW p18 W=500.0n L=180.00n
.ENDS AO31UHDV0P7
.SUBCKT AO31UHDV1 A1 A2 A3 B Z VDD VSS VNW VPW
MM4 Z net10 VSS VPW n18 W=720.00n L=180.00n
MM3 net10 A1 net14 VPW n18 W=430.00n L=180.00n
MM5 net14 A2 net046 VPW n18 W=430.00n L=180.00n
MM8 net10 B VSS VPW n18 W=430.00n L=180.00n
MM9 net046 A3 VSS VPW n18 W=430.00n L=180.00n
MM1 Z net10 VDD VNW p18 W=1.01u L=180.00n
MM7 net10 B net38 VNW p18 W=580.0n L=180.00n
MM0 net38 A2 VDD VNW p18 W=580.0n L=180.00n
MM2 net38 A1 VDD VNW p18 W=580.0n L=180.00n